Version8/Distrib/Examples/ADiakoptics/TnDSystem/Transmission/Distribution/sub/Transformers.dss
New "Transformer.mdv201_hn_2_424_a784-1a" phases=1 buses=[784.1, x_784.1, ] conns=[wye, wye, ] kVs=[7.199558, 0.24, ] kVAs=[25, 25, ] taps=[1, 1, ] buses=[784.1, x_784.1, ] conns=[wye, wye, ] kVs=[7.199558, 0.24, ] kVAs=[25, 25, ] taps=[1, 1, ] wdg=1 %R=0.75 RdcOhms=13.21758 wdg=2 %R=0.75 RdcOhms=0.014688 RdcOhms=0.014688 %imag=0.5 %loadloss=1.5 %noloadloss=0.25 XHL=2
New "Transformer.mdv201_hn_2_423_a785-1a" phases=1 buses=[785.1, x_785.1, ] conns=[wye, wye, ] kVs=[7.199558, 0.24, ] kVAs=[25, 25, ] taps=[1, 1, ] buses=[785.1, x_785.1, ] conns=[wye, wye, ] kVs=[7.199558, 0.24, ] kVAs=[25, 25, ] taps=[1, 1, ] wdg=1 %R=0.75 RdcOhms=13.21758 wdg=2 %R=0.75 RdcOhms=0.014688 RdcOhms=0.014688 %imag=0.5 %loadloss=1.5 %noloadloss=0.25 XHL=2
New "Transformer.mdv201_hn_2_422_a790-1a" phases=1 buses=[790.1, x_790.1, ] conns=[wye, wye, ] kVs=[7.199558, 0.24, ] kVAs=[25, 25, ] taps=[1, 1, ] buses=[790.1, x_790.1, ] conns=[wye, wye, ] kVs=[7.199558, 0.24, ] kVAs=[25, 25, ] taps=[1, 1, ] wdg=1 %R=0.75 RdcOhms=13.21758 wdg=2 %R=0.75 RdcOhms=0.014688 RdcOhms=0.014688 %imag=0.5 %loadloss=1.5 %noloadloss=0.25 XHL=2
New "Transformer.mdv201_hn_2_421_a808-1a" phases=1 buses=[808.1, x_808.1, ] conns=[wye, wye, ] kVs=[7.199558, 0.24, ] kVAs=[25, 25, ] taps=[1, 1, ] buses=[808.1, x_808.1, ] conns=[wye, wye, ] kVs=[7.199558, 0.24, ] kVAs=[25, 25, ] taps=[1, 1, ] wdg=1 %R=0.75 RdcOhms=13.21758 wdg=2 %R=0.75 RdcOhms=0.014688 RdcOhms=0.014688 %imag=0.5 %loadloss=1.5 %noloadloss=0.25 XHL=2
New "Transformer.mdv201_hn_2_420_a814-1a" phases=1 buses=[814.1, x_814.1, ] conns=[wye, wye, ] kVs=[7.199558, 0.24, ] kVAs=[25, 25, ] taps=[1, 1, ] buses=[814.1, x_814.1, ] conns=[wye, wye, ] kVs=[7.199558, 0.24, ] kVAs=[25, 25, ] taps=[1, 1, ] wdg=1 %R=0.75 RdcOhms=13.21758 wdg=2 %R=0.75 RdcOhms=0.014688 RdcOhms=0.014688 %imag=0.5 %loadloss=1.5 %noloadloss=0.25 XHL=2
New "Transformer.mdv201_hn_2_419_a827-1a" phases=1 buses=[827.1, x_827.1, ] conns=[wye, wye, ] kVs=[7.199558, 0.24, ] kVAs=[25, 25, ] taps=[1, 1, ] buses=[827.1, x_827.1, ] conns=[wye, wye, ] kVs=[7.199558, 0.24, ] kVAs=[25, 25, ] taps=[1, 1, ] wdg=1 %R=0.75 RdcOhms=13.21758 wdg=2 %R=0.75 RdcOhms=0.014688 RdcOhms=0.014688 %imag=0.5 %loadloss=1.5 %noloadloss=0.25 XHL=2
New "Transformer.mdv201_hn_2_418_a835-1a" phases=1 buses=[835.1, x_835.1, ] conns=[wye, wye, ] kVs=[7.199558, 0.24, ] kVAs=[25, 25, ] taps=[1, 1, ] buses=[835.1, x_835.1, ] conns=[wye, wye, ] kVs=[7.199558, 0.24, ] kVAs=[25, 25, ] taps=[1, 1, ] wdg=1 %R=0.75 RdcOhms=13.21758 wdg=2 %R=0.75 RdcOhms=0.014688 RdcOhms=0.014688 %imag=0.5 %loadloss=1.5 %noloadloss=0.25 XHL=2
New "Transformer.mdv201_hn_2_417_a842-1a" phases=1 buses=[842.1, x_842.1, ] conns=[wye, wye, ] kVs=[7.199558, 0.24, ] kVAs=[15, 15, ] taps=[1, 1, ] buses=[842.1, x_842.1, ] conns=[wye, wye, ] kVs=[7.199558, 0.24, ] kVAs=[15, 15, ] taps=[1, 1, ] wdg=1 %R=0.825 RdcOhms=24.23222 wdg=2 %R=0.825 RdcOhms=0.026928 RdcOhms=0.026928 %imag=0.5 %loadloss=1.65 %noloadloss=0.25 XHL=2
New "Transformer.mdv201_hn_2_416_a844-1a" phases=1 buses=[844.1, x_844.1, ] conns=[wye, wye, ] kVs=[7.199558, 0.24, ] kVAs=[25, 25, ] taps=[1, 1, ] buses=[844.1, x_844.1, ] conns=[wye, wye, ] kVs=[7.199558, 0.24, ] kVAs=[25, 25, ] taps=[1, 1, ] wdg=1 %R=0.75 RdcOhms=13.21758 wdg=2 %R=0.75 RdcOhms=0.014688 RdcOhms=0.014688 %imag=0.5 %loadloss=1.5 %noloadloss=0.25 XHL=2
New "Transformer.mdv201_hn_2_414_a843-1a" phases=1 buses=[843.1, x_843.1, ] conns=[wye, wye, ] kVs=[7.199558, 0.24, ] kVAs=[25, 25, ] taps=[1, 1, ] buses=[843.1, x_843.1, ] conns=[wye, wye, ] kVs=[7.199558, 0.24, ] kVAs=[25, 25, ] taps=[1, 1, ] wdg=1 %R=0.75 RdcOhms=13.21758 wdg=2 %R=0.75 RdcOhms=0.014688 RdcOhms=0.014688 %imag=0.5 %loadloss=1.5 %noloadloss=0.25 XHL=2
New "Transformer.mdv201_hn_2_413_a838-1a" phases=1 buses=[838.1, x_838.1, ] conns=[wye, wye, ] kVs=[7.199558, 0.24, ] kVAs=[25, 25, ] taps=[1, 1, ] buses=[838.1, x_838.1, ] conns=[wye, wye, ] kVs=[7.199558, 0.24, ] kVAs=[25, 25, ] taps=[1, 1, ] wdg=1 %R=0.75 RdcOhms=13.21758 wdg=2 %R=0.75 RdcOhms=0.014688 RdcOhms=0.014688 %imag=0.5 %loadloss=1.5 %noloadloss=0.25 XHL=2
New "Transformer.mdv201_hn_2_412_a832-1a" phases=1 buses=[832.1, x_832.1, ] conns=[wye, wye, ] kVs=[7.199558, 0.24, ] kVAs=[25, 25, ] taps=[1, 1, ] buses=[832.1, x_832.1, ] conns=[wye, wye, ] kVs=[7.199558, 0.24, ] kVAs=[25, 25, ] taps=[1, 1, ] wdg=1 %R=0.75 RdcOhms=13.21758 wdg=2 %R=0.75 RdcOhms=0.014688 RdcOhms=0.014688 %imag=0.5 %loadloss=1.5 %noloadloss=0.25 XHL=2
New "Transformer.mdv201_hn_2_411_a828-1a" phases=1 buses=[828.1, x_828.1, ] conns=[wye, wye, ] kVs=[7.199558, 0.24, ] kVAs=[25, 25, ] taps=[1, 1, ] buses=[828.1, x_828.1, ] conns=[wye, wye, ] kVs=[7.199558, 0.24, ] kVAs=[25, 25, ] taps=[1, 1, ] wdg=1 %R=0.75 RdcOhms=13.21758 wdg=2 %R=0.75 RdcOhms=0.014688 RdcOhms=0.014688 %imag=0.5 %loadloss=1.5 %noloadloss=0.25 XHL=2
New "Transformer.mdv201_hn_2_410_a819-1a" phases=1 buses=[819.1, x_819.1, ] conns=[wye, wye, ] kVs=[7.199558, 0.24, ] kVAs=[25, 25, ] taps=[1, 1, ] buses=[819.1, x_819.1, ] conns=[wye, wye, ] kVs=[7.199558, 0.24, ] kVAs=[25, 25, ] taps=[1, 1, ] wdg=1 %R=0.75 RdcOhms=13.21758 wdg=2 %R=0.75 RdcOhms=0.014688 RdcOhms=0.014688 %imag=0.5 %loadloss=1.5 %noloadloss=0.25 XHL=2
New "Transformer.mdv201_hn_2_409_a820-1a" phases=1 buses=[820.1, x_820.1, ] conns=[wye, wye, ] kVs=[7.199558, 0.24, ] kVAs=[25, 25, ] taps=[1, 1, ] buses=[820.1, x_820.1, ] conns=[wye, wye, ] kVs=[7.199558, 0.24, ] kVAs=[25, 25, ] taps=[1, 1, ] wdg=1 %R=0.75 RdcOhms=13.21758 wdg=2 %R=0.75 RdcOhms=0.014688 RdcOhms=0.014688 %imag=0.5 %loadloss=1.5 %noloadloss=0.25 XHL=2
New "Transformer.mdv201_795elb-1a" phases=1 buses=[795.1, x_795.1, ] conns=[wye, wye, ] kVs=[7.199558, 0.24, ] kVAs=[75, 75, ] taps=[1, 1, ] buses=[795.1, x_795.1, ] conns=[wye, wye, ] kVs=[7.199558, 0.24, ] kVAs=[75, 75, ] taps=[1, 1, ] wdg=1 %R=0.6 RdcOhms=3.524687 wdg=2 %R=0.6 RdcOhms=0.0039168 RdcOhms=0.0039168 %imag=0.5 %loadloss=1.2 %noloadloss=0.25 XHL=2
New "Transformer.mdv201_hn_2_436_abc63639-1b" phases=1 buses=[63639.2, x_63639.2, ] conns=[wye, wye, ] kVs=[7.199558, 0.24, ] kVAs=[25, 25, ] taps=[1, 1, ] buses=[63639.2, x_63639.2, ] conns=[wye, wye, ] kVs=[7.199558, 0.24, ] kVAs=[25, 25, ] taps=[1, 1, ] wdg=1 %R=0.75 RdcOhms=13.21758 wdg=2 %R=0.75 RdcOhms=0.014688 RdcOhms=0.014688 %imag=0.5 %loadloss=1.5 %noloadloss=0.25 XHL=2
New "Transformer.mdv201_hn_2_435_abc63643-1b" phases=1 buses=[63643.2, x_63643.2, ] conns=[wye, wye, ] kVs=[7.199558, 0.24, ] kVAs=[25, 25, ] taps=[1, 1, ] buses=[63643.2, x_63643.2, ] conns=[wye, wye, ] kVs=[7.199558, 0.24, ] kVAs=[25, 25, ] taps=[1, 1, ] wdg=1 %R=0.75 RdcOhms=13.21758 wdg=2 %R=0.75 RdcOhms=0.014688 RdcOhms=0.014688 %imag=0.5 %loadloss=1.5 %noloadloss=0.25 XHL=2
New "Transformer.mdv201_hn_2_434_abc63645-1b" phases=1 buses=[63645.2, x_63645.2, ] conns=[wye, wye, ] kVs=[7.199558, 0.24, ] kVAs=[25, 25, ] taps=[1, 1, ] buses=[63645.2, x_63645.2, ] conns=[wye, wye, ] kVs=[7.199558, 0.24, ] kVAs=[25, 25, ] taps=[1, 1, ] wdg=1 %R=0.75 RdcOhms=13.21758 wdg=2 %R=0.75 RdcOhms=0.014688 RdcOhms=0.014688 %imag=0.5 %loadloss=1.5 %noloadloss=0.25 XHL=2
New "Transformer.mdv201_hn_2_408_abc63655-1b" phases=1 buses=[63655.2, x_63655.2, ] conns=[wye, wye, ] kVs=[7.199558, 0.24, ] kVAs=[25, 25, ] taps=[1, 1, ] buses=[63655.2, x_63655.2, ] conns=[wye, wye, ] kVs=[7.199558, 0.24, ] kVAs=[25, 25, ] taps=[1, 1, ] wdg=1 %R=0.75 RdcOhms=13.21758 wdg=2 %R=0.75 RdcOhms=0.014688 RdcOhms=0.014688 %imag=0.5 %loadloss=1.5 %noloadloss=0.25 XHL=2
New "Transformer.mdv201_hn_2_395_abc63657-1b" phases=1 buses=[63657.2, x_63657.2, ] conns=[wye, wye, ] kVs=[7.199558, 0.24, ] kVAs=[37.5, 37.5, ] taps=[1, 1, ] buses=[63657.2, x_63657.2, ] conns=[wye, wye, ] kVs=[7.199558, 0.24, ] kVAs=[37.5, 37.5, ] taps=[1, 1, ] wdg=1 %R=0.7 RdcOhms=8.22427 wdg=2 %R=0.7 RdcOhms=0.0091392 RdcOhms=0.0091392 %imag=0.5 %loadloss=1.4 %noloadloss=0.25 XHL=2
New "Transformer.mdv201_hn_2_394_abc63658-1b" phases=1 buses=[63658.2, x_63658.2, ] conns=[wye, wye, ] kVs=[7.199558, 0.24, ] kVAs=[10, 10, ] taps=[1, 1, ] buses=[63658.2, x_63658.2, ] conns=[wye, wye, ] kVs=[7.199558, 0.24, ] kVAs=[10, 10, ] taps=[1, 1, ] wdg=1 %R=0.85 RdcOhms=37.4498 wdg=2 %R=0.85 RdcOhms=0.041616 RdcOhms=0.041616 %imag=0.5 %loadloss=1.7 %noloadloss=0.25 XHL=2
New "Transformer.mdv201_hn_2_146_abc63663-1a" phases=1 buses=[63663.1, x_63663.1, ] conns=[wye, wye, ] kVs=[7.199558, 0.24, ] kVAs=[25, 25, ] taps=[1, 1, ] buses=[63663.1, x_63663.1, ] conns=[wye, wye, ] kVs=[7.199558, 0.24, ] kVAs=[25, 25, ] taps=[1, 1, ] wdg=1 %R=0.75 RdcOhms=13.21758 wdg=2 %R=0.75 RdcOhms=0.014688 RdcOhms=0.014688 %imag=0.5 %loadloss=1.5 %noloadloss=0.25 XHL=2
New "Transformer.mdv201_hn_2_015_abc63665-1a" phases=1 buses=[63665.1, x_63665.1, ] conns=[wye, wye, ] kVs=[7.199558, 0.24, ] kVAs=[25, 25, ] taps=[1, 1, ] buses=[63665.1, x_63665.1, ] conns=[wye, wye, ] kVs=[7.199558, 0.24, ] kVAs=[25, 25, ] taps=[1, 1, ] wdg=1 %R=0.75 RdcOhms=13.21758 wdg=2 %R=0.75 RdcOhms=0.014688 RdcOhms=0.014688 %imag=0.5 %loadloss=1.5 %noloadloss=0.25 XHL=2
New "Transformer.mdv201_hn_2_016_abc63680-1c" phases=1 buses=[63680.3, x_63680.3, ] conns=[wye, wye, ] kVs=[7.199558, 0.24, ] kVAs=[15, 15, ] taps=[1, 1, ] buses=[63680.3, x_63680.3, ] conns=[wye, wye, ] kVs=[7.199558, 0.24, ] kVAs=[15, 15, ] taps=[1, 1, ] wdg=1 %R=0.825 RdcOhms=24.23222 wdg=2 %R=0.825 RdcOhms=0.026928 RdcOhms=0.026928 %imag=0.5 %loadloss=1.65 %noloadloss=0.25 XHL=2
New "Transformer.mdv201_hn_2_291_abc63681-1a" phases=1 buses=[63681.1, x_63681.1, ] conns=[wye, wye, ] kVs=[7.199558, 0.24, ] kVAs=[37.5, 37.5, ] taps=[1, 1, ] buses=[63681.1, x_63681.1, ] conns=[wye, wye, ] kVs=[7.199558, 0.24, ] kVAs=[37.5, 37.5, ] taps=[1, 1, ] wdg=1 %R=0.7 RdcOhms=8.22427 wdg=2 %R=0.7 RdcOhms=0.0091392 RdcOhms=0.0091392 %imag=0.5 %loadloss=1.4 %noloadloss=0.25 XHL=2
New "Transformer.mdv201_1144263fuse-1a" phases=1 buses=[1144263.1, x_1144263.1, ] conns=[wye, wye, ] kVs=[7.199558, 0.24, ] kVAs=[25, 25, ] taps=[1, 1, ] buses=[1144263.1, x_1144263.1, ] conns=[wye, wye, ] kVs=[7.199558, 0.24, ] kVAs=[25, 25, ] taps=[1, 1, ] wdg=1 %R=0.75 RdcOhms=13.21758 wdg=2 %R=0.75 RdcOhms=0.014688 RdcOhms=0.014688 %imag=0.5 %loadloss=1.5 %noloadloss=0.25 XHL=2
New "Transformer.mdv201_hn_2_725_a1144264-1a" phases=1 buses=[1144264.1, x_1144264.1, ] conns=[wye, wye, ] kVs=[7.199558, 0.24, ] kVAs=[25, 25, ] taps=[1, 1, ] buses=[1144264.1, x_1144264.1, ] conns=[wye, wye, ] kVs=[7.199558, 0.24, ] kVAs=[25, 25, ] taps=[1, 1, ] wdg=1 %R=0.75 RdcOhms=13.21758 wdg=2 %R=0.75 RdcOhms=0.014688 RdcOhms=0.014688 %imag=0.5 %loadloss=1.5 %noloadloss=0.25 XHL=2
New "Transformer.mdv201_hn_2_726_a63675-1a" phases=1 buses=[63675.1, x_63675.1, ] conns=[wye, wye, ] kVs=[7.199558, 0.24, ] kVAs=[25, 25, ] taps=[1, 1, ] buses=[63675.1, x_63675.1, ] conns=[wye, wye, ] kVs=[7.199558, 0.24, ] kVAs=[25, 25, ] taps=[1, 1, ] wdg=1 %R=0.75 RdcOhms=13.21758 wdg=2 %R=0.75 RdcOhms=0.014688 RdcOhms=0.014688 %imag=0.5 %loadloss=1.5 %noloadloss=0.25 XHL=2
New "Transformer.mdv201_hn_2_613_abc63682-1a" phases=1 buses=[63682.1, x_63682.1, ] conns=[wye, wye, ] kVs=[7.199558, 0.24, ] kVAs=[25, 25, ] taps=[1, 1, ] buses=[63682.1, x_63682.1, ] conns=[wye, wye, ] kVs=[7.199558, 0.24, ] kVAs=[25, 25, ] taps=[1, 1, ] wdg=1 %R=0.75 RdcOhms=13.21758 wdg=2 %R=0.75 RdcOhms=0.014688 RdcOhms=0.014688 %imag=0.5 %loadloss=1.5 %noloadloss=0.25 XHL=2
New "Transformer.mdv201_hn_2_616_abc28226-1c" phases=1 buses=[28226.3, x_28226.3, ] conns=[wye, wye, ] kVs=[7.199558, 0.24, ] kVAs=[25, 25, ] taps=[1, 1, ] buses=[28226.3, x_28226.3, ] conns=[wye, wye, ] kVs=[7.199558, 0.24, ] kVAs=[25, 25, ] taps=[1, 1, ] wdg=1 %R=0.75 RdcOhms=13.21758 wdg=2 %R=0.75 RdcOhms=0.014688 RdcOhms=0.014688 %imag=0.5 %loadloss=1.5 %noloadloss=0.25 XHL=2
New "Transformer.mdv201_hn_2_620_c28227-1c" phases=1 buses=[28227.3, x_28227.3, ] conns=[wye, wye, ] kVs=[7.199558, 0.24, ] kVAs=[25, 25, ] taps=[1, 1, ] buses=[28227.3, x_28227.3, ] conns=[wye, wye, ] kVs=[7.199558, 0.24, ] kVAs=[25, 25, ] taps=[1, 1, ] wdg=1 %R=0.75 RdcOhms=13.21758 wdg=2 %R=0.75 RdcOhms=0.014688 RdcOhms=0.014688 %imag=0.5 %loadloss=1.5 %noloadloss=0.25 XHL=2
New "Transformer.mdv201_hn_2_621_c28222-1c" phases=1 buses=[28222.3, x_28222.3, ] conns=[wye, wye, ] kVs=[7.199558, 0.24, ] kVAs=[37.5, 37.5, ] taps=[1, 1, ] buses=[28222.3, x_28222.3, ] conns=[wye, wye, ] kVs=[7.199558, 0.24, ] kVAs=[37.5, 37.5, ] taps=[1, 1, ] wdg=1 %R=0.7 RdcOhms=8.22427 wdg=2 %R=0.7 RdcOhms=0.0091392 RdcOhms=0.0091392 %imag=0.5 %loadloss=1.4 %noloadloss=0.25 XHL=2
New "Transformer.mdv201_hn_2_622_c28223-1c" phases=1 buses=[28223.3, x_28223.3, ] conns=[wye, wye, ] kVs=[7.199558, 0.24, ] kVAs=[37.5, 37.5, ] taps=[1, 1, ] buses=[28223.3, x_28223.3, ] conns=[wye, wye, ] kVs=[7.199558, 0.24, ] kVAs=[37.5, 37.5, ] taps=[1, 1, ] wdg=1 %R=0.7 RdcOhms=8.22427 wdg=2 %R=0.7 RdcOhms=0.0091392 RdcOhms=0.0091392 %imag=0.5 %loadloss=1.4 %noloadloss=0.25 XHL=2
New "Transformer.mdv201_hn_2_623_c14865-1c" phases=1 buses=[14865.3, x_14865.3, ] conns=[wye, wye, ] kVs=[7.199558, 0.24, ] kVAs=[25, 25, ] taps=[1, 1, ] buses=[14865.3, x_14865.3, ] conns=[wye, wye, ] kVs=[7.199558, 0.24, ] kVAs=[25, 25, ] taps=[1, 1, ] wdg=1 %R=0.75 RdcOhms=13.21758 wdg=2 %R=0.75 RdcOhms=0.014688 RdcOhms=0.014688 %imag=0.5 %loadloss=1.5 %noloadloss=0.25 XHL=2
New "Transformer.mdv201_hn_2_624_c14866-1c" phases=1 buses=[14866.3, x_14866.3, ] conns=[wye, wye, ] kVs=[7.199558, 0.24, ] kVAs=[25, 25, ] taps=[1, 1, ] buses=[14866.3, x_14866.3, ] conns=[wye, wye, ] kVs=[7.199558, 0.24, ] kVAs=[25, 25, ] taps=[1, 1, ] wdg=1 %R=0.75 RdcOhms=13.21758 wdg=2 %R=0.75 RdcOhms=0.014688 RdcOhms=0.014688 %imag=0.5 %loadloss=1.5 %noloadloss=0.25 XHL=2
New "Transformer.mdv201_hn_2_625_c14882-1c" phases=1 buses=[14882.3, x_14882.3, ] conns=[wye, wye, ] kVs=[7.199558, 0.24, ] kVAs=[25, 25, ] taps=[1, 1, ] buses=[14882.3, x_14882.3, ] conns=[wye, wye, ] kVs=[7.199558, 0.24, ] kVAs=[25, 25, ] taps=[1, 1, ] wdg=1 %R=0.75 RdcOhms=13.21758 wdg=2 %R=0.75 RdcOhms=0.014688 RdcOhms=0.014688 %imag=0.5 %loadloss=1.5 %noloadloss=0.25 XHL=2
New "Transformer.mdv201_hn_2_626_c14867-1c" phases=1 buses=[14867.3, x_14867.3, ] conns=[wye, wye, ] kVs=[7.199558, 0.24, ] kVAs=[25, 25, ] taps=[1, 1, ] buses=[14867.3, x_14867.3, ] conns=[wye, wye, ] kVs=[7.199558, 0.24, ] kVAs=[25, 25, ] taps=[1, 1, ] wdg=1 %R=0.75 RdcOhms=13.21758 wdg=2 %R=0.75 RdcOhms=0.014688 RdcOhms=0.014688 %imag=0.5 %loadloss=1.5 %noloadloss=0.25 XHL=2
New "Transformer.mdv201_hn_2_627_c14868-1c" phases=1 buses=[14868.3, x_14868.3, ] conns=[wye, wye, ] kVs=[7.199558, 0.24, ] kVAs=[15, 15, ] taps=[1, 1, ] buses=[14868.3, x_14868.3, ] conns=[wye, wye, ] kVs=[7.199558, 0.24, ] kVAs=[15, 15, ] taps=[1, 1, ] wdg=1 %R=0.825 RdcOhms=24.23222 wdg=2 %R=0.825 RdcOhms=0.026928 RdcOhms=0.026928 %imag=0.5 %loadloss=1.65 %noloadloss=0.25 XHL=2
New "Transformer.mdv201_hn_2_618_abc28220-1a" phases=1 buses=[28220.1, x_28220.1, ] conns=[wye, wye, ] kVs=[7.199558, 0.24, ] kVAs=[25, 25, ] taps=[1, 1, ] buses=[28220.1, x_28220.1, ] conns=[wye, wye, ] kVs=[7.199558, 0.24, ] kVAs=[25, 25, ] taps=[1, 1, ] wdg=1 %R=0.75 RdcOhms=13.21758 wdg=2 %R=0.75 RdcOhms=0.014688 RdcOhms=0.014688 %imag=0.5 %loadloss=1.5 %noloadloss=0.25 XHL=2
New "Transformer.mdv201_105409fuse-1c" phases=1 buses=[105409.3, x_105409.3, ] conns=[wye, wye, ] kVs=[7.199558, 0.24, ] kVAs=[25, 25, ] taps=[1, 1, ] buses=[105409.3, x_105409.3, ] conns=[wye, wye, ] kVs=[7.199558, 0.24, ] kVAs=[25, 25, ] taps=[1, 1, ] wdg=1 %R=0.75 RdcOhms=13.21758 wdg=2 %R=0.75 RdcOhms=0.014688 RdcOhms=0.014688 %imag=0.5 %loadloss=1.5 %noloadloss=0.25 XHL=2
New "Transformer.mdv201_hn_2_705_abc52524-1a" phases=1 buses=[52524.1, x_52524.1, ] conns=[wye, wye, ] kVs=[7.199558, 0.24, ] kVAs=[25, 25, ] taps=[1, 1, ] buses=[52524.1, x_52524.1, ] conns=[wye, wye, ] kVs=[7.199558, 0.24, ] kVAs=[25, 25, ] taps=[1, 1, ] wdg=1 %R=0.75 RdcOhms=13.21758 wdg=2 %R=0.75 RdcOhms=0.014688 RdcOhms=0.014688 %imag=0.5 %loadloss=1.5 %noloadloss=0.25 XHL=2
New "Transformer.mdv201_hn_2_816_abc14879-1a" phases=1 buses=[14879.1, x_14879.1, ] conns=[wye, wye, ] kVs=[7.199558, 0.24, ] kVAs=[25, 25, ] taps=[1, 1, ] buses=[14879.1, x_14879.1, ] conns=[wye, wye, ] kVs=[7.199558, 0.24, ] kVAs=[25, 25, ] taps=[1, 1, ] wdg=1 %R=0.75 RdcOhms=13.21758 wdg=2 %R=0.75 RdcOhms=0.014688 RdcOhms=0.014688 %imag=0.5 %loadloss=1.5 %noloadloss=0.25 XHL=2
New "Transformer.mdv201_hn_2_827_a14873-1a" phases=1 buses=[14873.1, x_14873.1, ] conns=[wye, wye, ] kVs=[7.199558, 0.24, ] kVAs=[25, 25, ] taps=[1, 1, ] buses=[14873.1, x_14873.1, ] conns=[wye, wye, ] kVs=[7.199558, 0.24, ] kVAs=[25, 25, ] taps=[1, 1, ] wdg=1 %R=0.75 RdcOhms=13.21758 wdg=2 %R=0.75 RdcOhms=0.014688 RdcOhms=0.014688 %imag=0.5 %loadloss=1.5 %noloadloss=0.25 XHL=2
New "Transformer.mdv201_hn_2_830_a14875-1a" phases=1 buses=[14875.1, x_14875.1, ] conns=[wye, wye, ] kVs=[7.199558, 0.24, ] kVAs=[25, 25, ] taps=[1, 1, ] buses=[14875.1, x_14875.1, ] conns=[wye, wye, ] kVs=[7.199558, 0.24, ] kVAs=[25, 25, ] taps=[1, 1, ] wdg=1 %R=0.75 RdcOhms=13.21758 wdg=2 %R=0.75 RdcOhms=0.014688 RdcOhms=0.014688 %imag=0.5 %loadloss=1.5 %noloadloss=0.25 XHL=2
New "Transformer.mdv201_hn_2_817_abc14880-1a" phases=1 buses=[14880.1, x_14880.1, ] conns=[wye, wye, ] kVs=[7.199558, 0.24, ] kVAs=[25, 25, ] taps=[1, 1, ] buses=[14880.1, x_14880.1, ] conns=[wye, wye, ] kVs=[7.199558, 0.24, ] kVAs=[25, 25, ] taps=[1, 1, ] wdg=1 %R=0.75 RdcOhms=13.21758 wdg=2 %R=0.75 RdcOhms=0.014688 RdcOhms=0.014688 %imag=0.5 %loadloss=1.5 %noloadloss=0.25 XHL=2
New "Transformer.mdv201_hn_2_819_abc8177-1a" phases=1 buses=[8177.1, x_8177.1, ] conns=[wye, wye, ] kVs=[7.199558, 0.24, ] kVAs=[25, 25, ] taps=[1, 1, ] buses=[8177.1, x_8177.1, ] conns=[wye, wye, ] kVs=[7.199558, 0.24, ] kVAs=[25, 25, ] taps=[1, 1, ] wdg=1 %R=0.75 RdcOhms=13.21758 wdg=2 %R=0.75 RdcOhms=0.014688 RdcOhms=0.014688 %imag=0.5 %loadloss=1.5 %noloadloss=0.25 XHL=2
New "Transformer.mdv201_hn_2_286_abc8178-1a" phases=1 buses=[8178.1, x_8178.1, ] conns=[wye, wye, ] kVs=[7.199558, 0.24, ] kVAs=[37.5, 37.5, ] taps=[1, 1, ] buses=[8178.1, x_8178.1, ] conns=[wye, wye, ] kVs=[7.199558, 0.24, ] kVAs=[37.5, 37.5, ] taps=[1, 1, ] wdg=1 %R=0.7 RdcOhms=8.22427 wdg=2 %R=0.7 RdcOhms=0.0091392 RdcOhms=0.0091392 %imag=0.5 %loadloss=1.4 %noloadloss=0.25 XHL=2
New "Transformer.mdv201_hn_2_303_a1144255-1a" phases=1 buses=[1144255.1, x_1144255.1, ] conns=[wye, wye, ] kVs=[7.199558, 0.24, ] kVAs=[10, 10, ] taps=[1, 1, ] buses=[1144255.1, x_1144255.1, ] conns=[wye, wye, ] kVs=[7.199558, 0.24, ] kVAs=[10, 10, ] taps=[1, 1, ] wdg=1 %R=0.85 RdcOhms=37.4498 wdg=2 %R=0.85 RdcOhms=0.041616 RdcOhms=0.041616 %imag=0.5 %loadloss=1.7 %noloadloss=0.25 XHL=2
New "Transformer.mdv201_hn_2_304_a8174-1a" phases=1 buses=[8174.1, x_8174.1, ] conns=[wye, wye, ] kVs=[7.199558, 0.24, ] kVAs=[25, 25, ] taps=[1, 1, ] buses=[8174.1, x_8174.1, ] conns=[wye, wye, ] kVs=[7.199558, 0.24, ] kVAs=[25, 25, ] taps=[1, 1, ] wdg=1 %R=0.75 RdcOhms=13.21758 wdg=2 %R=0.75 RdcOhms=0.014688 RdcOhms=0.014688 %imag=0.5 %loadloss=1.5 %noloadloss=0.25 XHL=2
New "Transformer.mdv201_hn_2_113_abc8184-1a" phases=1 buses=[8184.1, x_8184.1, ] conns=[wye, wye, ] kVs=[7.199558, 0.24, ] kVAs=[15, 15, ] taps=[1, 1, ] buses=[8184.1, x_8184.1, ] conns=[wye, wye, ] kVs=[7.199558, 0.24, ] kVAs=[15, 15, ] taps=[1, 1, ] wdg=1 %R=0.825 RdcOhms=24.23222 wdg=2 %R=0.825 RdcOhms=0.026928 RdcOhms=0.026928 %imag=0.5 %loadloss=1.65 %noloadloss=0.25 XHL=2
New "Transformer.mdv201_hn_2_281_a8186-1a" phases=1 buses=[8186.1, x_8186.1, ] conns=[wye, wye, ] kVs=[7.199558, 0.24, ] kVAs=[15, 15, ] taps=[1, 1, ] buses=[8186.1, x_8186.1, ] conns=[wye, wye, ] kVs=[7.199558, 0.24, ] kVAs=[15, 15, ] taps=[1, 1, ] wdg=1 %R=0.825 RdcOhms=24.23222 wdg=2 %R=0.825 RdcOhms=0.026928 RdcOhms=0.026928 %imag=0.5 %loadloss=1.65 %noloadloss=0.25 XHL=2
New "Transformer.mdv201_hn_2_070_a1144231-1a" phases=1 buses=[1144231.1, x_1144231.1, ] conns=[wye, wye, ] kVs=[7.199558, 0.24, ] kVAs=[15, 15, ] taps=[1, 1, ] buses=[1144231.1, x_1144231.1, ] conns=[wye, wye, ] kVs=[7.199558, 0.24, ] kVAs=[15, 15, ] taps=[1, 1, ] wdg=1 %R=0.825 RdcOhms=24.23222 wdg=2 %R=0.825 RdcOhms=0.026928 RdcOhms=0.026928 %imag=0.5 %loadloss=1.65 %noloadloss=0.25 XHL=2
New "Transformer.mdv201_hn_21023_a8193-1a" phases=1 buses=[8193.1, x_8193.1, ] conns=[wye, wye, ] kVs=[7.199558, 0.24, ] kVAs=[15, 15, ] taps=[1, 1, ] buses=[8193.1, x_8193.1, ] conns=[wye, wye, ] kVs=[7.199558, 0.24, ] kVAs=[15, 15, ] taps=[1, 1, ] wdg=1 %R=0.825 RdcOhms=24.23222 wdg=2 %R=0.825 RdcOhms=0.026928 RdcOhms=0.026928 %imag=0.5 %loadloss=1.65 %noloadloss=0.25 XHL=2
New "Transformer.mdv201_hn_2_072_a8187-1a" phases=1 buses=[8187.1, x_8187.1, ] conns=[wye, wye, ] kVs=[7.199558, 0.24, ] kVAs=[15, 15, ] taps=[1, 1, ] buses=[8187.1, x_8187.1, ] conns=[wye, wye, ] kVs=[7.199558, 0.24, ] kVAs=[15, 15, ] taps=[1, 1, ] wdg=1 %R=0.825 RdcOhms=24.23222 wdg=2 %R=0.825 RdcOhms=0.026928 RdcOhms=0.026928 %imag=0.5 %loadloss=1.65 %noloadloss=0.25 XHL=2
New "Transformer.mdv201_hn_2_076_a14843-1a" phases=1 buses=[14843.1, x_14843.1, ] conns=[wye, wye, ] kVs=[7.199558, 0.24, ] kVAs=[10, 10, ] taps=[1, 1, ] buses=[14843.1, x_14843.1, ] conns=[wye, wye, ] kVs=[7.199558, 0.24, ] kVAs=[10, 10, ] taps=[1, 1, ] wdg=1 %R=0.85 RdcOhms=37.4498 wdg=2 %R=0.85 RdcOhms=0.041616 RdcOhms=0.041616 %imag=0.5 %loadloss=1.7 %noloadloss=0.25 XHL=2
New "Transformer.mdv201_hn_2_073_a8183-1a" phases=1 buses=[8183.1, x_8183.1, ] conns=[wye, wye, ] kVs=[7.199558, 0.24, ] kVAs=[37.5, 37.5, ] taps=[1, 1, ] buses=[8183.1, x_8183.1, ] conns=[wye, wye, ] kVs=[7.199558, 0.24, ] kVAs=[37.5, 37.5, ] taps=[1, 1, ] wdg=1 %R=0.7 RdcOhms=8.22427 wdg=2 %R=0.7 RdcOhms=0.0091392 RdcOhms=0.0091392 %imag=0.5 %loadloss=1.4 %noloadloss=0.25 XHL=2
New "Transformer.mdv201_hn_2_074_a8182-1a" phases=1 buses=[8182.1, x_8182.1, ] conns=[wye, wye, ] kVs=[7.199558, 0.24, ] kVAs=[15, 15, ] taps=[1, 1, ] buses=[8182.1, x_8182.1, ] conns=[wye, wye, ] kVs=[7.199558, 0.24, ] kVAs=[15, 15, ] taps=[1, 1, ] wdg=1 %R=0.825 RdcOhms=24.23222 wdg=2 %R=0.825 RdcOhms=0.026928 RdcOhms=0.026928 %imag=0.5 %loadloss=1.65 %noloadloss=0.25 XHL=2
New "Transformer.mdv201_hn_2_068_abc14845-1a" phases=1 buses=[14845.1, x_14845.1, ] conns=[wye, wye, ] kVs=[7.199558, 0.24, ] kVAs=[37.5, 37.5, ] taps=[1, 1, ] buses=[14845.1, x_14845.1, ] conns=[wye, wye, ] kVs=[7.199558, 0.24, ] kVAs=[37.5, 37.5, ] taps=[1, 1, ] wdg=1 %R=0.7 RdcOhms=8.22427 wdg=2 %R=0.7 RdcOhms=0.0091392 RdcOhms=0.0091392 %imag=0.5 %loadloss=1.4 %noloadloss=0.25 XHL=2
New "Transformer.mdv201_hn_2_067_abc14836-1a" phases=1 buses=[14836.1, x_14836.1, ] conns=[wye, wye, ] kVs=[7.199558, 0.24, ] kVAs=[25, 25, ] taps=[1, 1, ] buses=[14836.1, x_14836.1, ] conns=[wye, wye, ] kVs=[7.199558, 0.24, ] kVAs=[25, 25, ] taps=[1, 1, ] wdg=1 %R=0.75 RdcOhms=13.21758 wdg=2 %R=0.75 RdcOhms=0.014688 RdcOhms=0.014688 %imag=0.5 %loadloss=1.5 %noloadloss=0.25 XHL=2
New "Transformer.mdv201_hn_2_067_abc14836-1c" phases=1 buses=[14836.3, x_14836.3, ] conns=[wye, wye, ] kVs=[7.199558, 0.24, ] kVAs=[15, 15, ] taps=[1, 1, ] buses=[14836.3, x_14836.3, ] conns=[wye, wye, ] kVs=[7.199558, 0.24, ] kVAs=[15, 15, ] taps=[1, 1, ] wdg=1 %R=0.825 RdcOhms=24.23222 wdg=2 %R=0.825 RdcOhms=0.026928 RdcOhms=0.026928 %imag=0.5 %loadloss=1.65 %noloadloss=0.25 XHL=2
New "Transformer.mdv201_hn_2_066_abc14832-1a" phases=1 buses=[14832.1, x_14832.1, ] conns=[wye, wye, ] kVs=[7.199558, 0.24, ] kVAs=[25, 25, ] taps=[1, 1, ] buses=[14832.1, x_14832.1, ] conns=[wye, wye, ] kVs=[7.199558, 0.24, ] kVAs=[25, 25, ] taps=[1, 1, ] wdg=1 %R=0.75 RdcOhms=13.21758 wdg=2 %R=0.75 RdcOhms=0.014688 RdcOhms=0.014688 %imag=0.5 %loadloss=1.5 %noloadloss=0.25 XHL=2
New "Transformer.mdv201_hn_2_328_c14830-1c" phases=1 buses=[14830.3, x_14830.3, ] conns=[wye, wye, ] kVs=[7.199558, 0.24, ] kVAs=[25, 25, ] taps=[1, 1, ] buses=[14830.3, x_14830.3, ] conns=[wye, wye, ] kVs=[7.199558, 0.24, ] kVAs=[25, 25, ] taps=[1, 1, ] wdg=1 %R=0.75 RdcOhms=13.21758 wdg=2 %R=0.75 RdcOhms=0.014688 RdcOhms=0.014688 %imag=0.5 %loadloss=1.5 %noloadloss=0.25 XHL=2
New "Transformer.mdv201_hn_2_151_c14833-1c" phases=1 buses=[14833.3, x_14833.3, ] conns=[wye, wye, ] kVs=[7.199558, 0.24, ] kVAs=[25, 25, ] taps=[1, 1, ] buses=[14833.3, x_14833.3, ] conns=[wye, wye, ] kVs=[7.199558, 0.24, ] kVAs=[25, 25, ] taps=[1, 1, ] wdg=1 %R=0.75 RdcOhms=13.21758 wdg=2 %R=0.75 RdcOhms=0.014688 RdcOhms=0.014688 %imag=0.5 %loadloss=1.5 %noloadloss=0.25 XHL=2
New "Transformer.mdv201_hn_2_232_c14835-1c" phases=1 buses=[14835.3, x_14835.3, ] conns=[wye, wye, ] kVs=[7.199558, 0.24, ] kVAs=[25, 25, ] taps=[1, 1, ] buses=[14835.3, x_14835.3, ] conns=[wye, wye, ] kVs=[7.199558, 0.24, ] kVAs=[25, 25, ] taps=[1, 1, ] wdg=1 %R=0.75 RdcOhms=13.21758 wdg=2 %R=0.75 RdcOhms=0.014688 RdcOhms=0.014688 %imag=0.5 %loadloss=1.5 %noloadloss=0.25 XHL=2
New "Transformer.mdv201_hn_2_324_c14844-1c" phases=1 buses=[14844.3, x_14844.3, ] conns=[wye, wye, ] kVs=[7.199558, 0.24, ] kVAs=[25, 25, ] taps=[1, 1, ] buses=[14844.3, x_14844.3, ] conns=[wye, wye, ] kVs=[7.199558, 0.24, ] kVAs=[25, 25, ] taps=[1, 1, ] wdg=1 %R=0.75 RdcOhms=13.21758 wdg=2 %R=0.75 RdcOhms=0.014688 RdcOhms=0.014688 %imag=0.5 %loadloss=1.5 %noloadloss=0.25 XHL=2
New "Transformer.mdv201_hn_2_318_c28272-1c" phases=1 buses=[28272.3, x_28272.3, ] conns=[wye, wye, ] kVs=[7.199558, 0.24, ] kVAs=[25, 25, ] taps=[1, 1, ] buses=[28272.3, x_28272.3, ] conns=[wye, wye, ] kVs=[7.199558, 0.24, ] kVAs=[25, 25, ] taps=[1, 1, ] wdg=1 %R=0.75 RdcOhms=13.21758 wdg=2 %R=0.75 RdcOhms=0.014688 RdcOhms=0.014688 %imag=0.5 %loadloss=1.5 %noloadloss=0.25 XHL=2
New "Transformer.mdv201_hn_2_903_c28273-1c" phases=1 buses=[28273.3, x_28273.3, ] conns=[wye, wye, ] kVs=[7.199558, 0.24, ] kVAs=[37.5, 37.5, ] taps=[1, 1, ] buses=[28273.3, x_28273.3, ] conns=[wye, wye, ] kVs=[7.199558, 0.24, ] kVAs=[37.5, 37.5, ] taps=[1, 1, ] wdg=1 %R=0.7 RdcOhms=8.22427 wdg=2 %R=0.7 RdcOhms=0.0091392 RdcOhms=0.0091392 %imag=0.5 %loadloss=1.4 %noloadloss=0.25 XHL=2
New "Transformer.mdv201_hn_2_148_c14837-1c" phases=1 buses=[14837.3, x_14837.3, ] conns=[wye, wye, ] kVs=[7.199558, 0.24, ] kVAs=[25, 25, ] taps=[1, 1, ] buses=[14837.3, x_14837.3, ] conns=[wye, wye, ] kVs=[7.199558, 0.24, ] kVAs=[25, 25, ] taps=[1, 1, ] wdg=1 %R=0.75 RdcOhms=13.21758 wdg=2 %R=0.75 RdcOhms=0.014688 RdcOhms=0.014688 %imag=0.5 %loadloss=1.5 %noloadloss=0.25 XHL=2
New "Transformer.mdv201_hn_2_772_c14846-1c" phases=1 buses=[14846.3, x_14846.3, ] conns=[wye, wye, ] kVs=[7.199558, 0.24, ] kVAs=[37.5, 37.5, ] taps=[1, 1, ] buses=[14846.3, x_14846.3, ] conns=[wye, wye, ] kVs=[7.199558, 0.24, ] kVAs=[37.5, 37.5, ] taps=[1, 1, ] wdg=1 %R=0.7 RdcOhms=8.22427 wdg=2 %R=0.7 RdcOhms=0.0091392 RdcOhms=0.0091392 %imag=0.5 %loadloss=1.4 %noloadloss=0.25 XHL=2
New "Transformer.mdv201_hn_2_290_c14838-1c" phases=1 buses=[14838.3, x_14838.3, ] conns=[wye, wye, ] kVs=[7.199558, 0.24, ] kVAs=[15, 15, ] taps=[1, 1, ] buses=[14838.3, x_14838.3, ] conns=[wye, wye, ] kVs=[7.199558, 0.24, ] kVAs=[15, 15, ] taps=[1, 1, ] wdg=1 %R=0.825 RdcOhms=24.23222 wdg=2 %R=0.825 RdcOhms=0.026928 RdcOhms=0.026928 %imag=0.5 %loadloss=1.65 %noloadloss=0.25 XHL=2
New "Transformer.mdv201_hn_2_147_c14840-1c" phases=1 buses=[14840.3, x_14840.3, ] conns=[wye, wye, ] kVs=[7.199558, 0.24, ] kVAs=[37.5, 37.5, ] taps=[1, 1, ] buses=[14840.3, x_14840.3, ] conns=[wye, wye, ] kVs=[7.199558, 0.24, ] kVAs=[37.5, 37.5, ] taps=[1, 1, ] wdg=1 %R=0.7 RdcOhms=8.22427 wdg=2 %R=0.7 RdcOhms=0.0091392 RdcOhms=0.0091392 %imag=0.5 %loadloss=1.4 %noloadloss=0.25 XHL=2
New "Transformer.mdv201_hn_2_078_c28275-1c" phases=1 buses=[28275.3, x_28275.3, ] conns=[wye, wye, ] kVs=[7.199558, 0.24, ] kVAs=[37.5, 37.5, ] taps=[1, 1, ] buses=[28275.3, x_28275.3, ] conns=[wye, wye, ] kVs=[7.199558, 0.24, ] kVAs=[37.5, 37.5, ] taps=[1, 1, ] wdg=1 %R=0.7 RdcOhms=8.22427 wdg=2 %R=0.7 RdcOhms=0.0091392 RdcOhms=0.0091392 %imag=0.5 %loadloss=1.4 %noloadloss=0.25 XHL=2
New "Transformer.mdv201_hn_2_320_c28302-1c" phases=1 buses=[28302.3, x_28302.3, ] conns=[wye, wye, ] kVs=[7.199558, 0.24, ] kVAs=[15, 15, ] taps=[1, 1, ] buses=[28302.3, x_28302.3, ] conns=[wye, wye, ] kVs=[7.199558, 0.24, ] kVAs=[15, 15, ] taps=[1, 1, ] wdg=1 %R=0.825 RdcOhms=24.23222 wdg=2 %R=0.825 RdcOhms=0.026928 RdcOhms=0.026928 %imag=0.5 %loadloss=1.65 %noloadloss=0.25 XHL=2
New "Transformer.mdv201_hn_2_153_b14829-1b" phases=1 buses=[14829.2, x_14829.2, ] conns=[wye, wye, ] kVs=[7.199558, 0.24, ] kVAs=[37.5, 37.5, ] taps=[1, 1, ] buses=[14829.2, x_14829.2, ] conns=[wye, wye, ] kVs=[7.199558, 0.24, ] kVAs=[37.5, 37.5, ] taps=[1, 1, ] wdg=1 %R=0.7 RdcOhms=8.22427 wdg=2 %R=0.7 RdcOhms=0.0091392 RdcOhms=0.0091392 %imag=0.5 %loadloss=1.4 %noloadloss=0.25 XHL=2
New "Transformer.mdv201_hn_2_154_b62298-1b" phases=1 buses=[62298.2, x_62298.2, ] conns=[wye, wye, ] kVs=[7.199558, 0.24, ] kVAs=[37.5, 37.5, ] taps=[1, 1, ] buses=[62298.2, x_62298.2, ] conns=[wye, wye, ] kVs=[7.199558, 0.24, ] kVAs=[37.5, 37.5, ] taps=[1, 1, ] wdg=1 %R=0.7 RdcOhms=8.22427 wdg=2 %R=0.7 RdcOhms=0.0091392 RdcOhms=0.0091392 %imag=0.5 %loadloss=1.4 %noloadloss=0.25 XHL=2
New "Transformer.mdv201_hn_21032_b62295-1b" phases=1 buses=[62295.2, x_62295.2, ] conns=[wye, wye, ] kVs=[7.199558, 0.24, ] kVAs=[25, 25, ] taps=[1, 1, ] buses=[62295.2, x_62295.2, ] conns=[wye, wye, ] kVs=[7.199558, 0.24, ] kVAs=[25, 25, ] taps=[1, 1, ] wdg=1 %R=0.75 RdcOhms=13.21758 wdg=2 %R=0.75 RdcOhms=0.014688 RdcOhms=0.014688 %imag=0.5 %loadloss=1.5 %noloadloss=0.25 XHL=2
New "Transformer.mdv201_hn_2_327_b62296-1b" phases=1 buses=[62296.2, x_62296.2, ] conns=[wye, wye, ] kVs=[7.199558, 0.24, ] kVAs=[15, 15, ] taps=[1, 1, ] buses=[62296.2, x_62296.2, ] conns=[wye, wye, ] kVs=[7.199558, 0.24, ] kVAs=[15, 15, ] taps=[1, 1, ] wdg=1 %R=0.825 RdcOhms=24.23222 wdg=2 %R=0.825 RdcOhms=0.026928 RdcOhms=0.026928 %imag=0.5 %loadloss=1.65 %noloadloss=0.25 XHL=2
New "Transformer.mdv201_hn_2_930_b62301-1b" phases=1 buses=[62301.2, x_62301.2, ] conns=[wye, wye, ] kVs=[7.199558, 0.24, ] kVAs=[25, 25, ] taps=[1, 1, ] buses=[62301.2, x_62301.2, ] conns=[wye, wye, ] kVs=[7.199558, 0.24, ] kVAs=[25, 25, ] taps=[1, 1, ] wdg=1 %R=0.75 RdcOhms=13.21758 wdg=2 %R=0.75 RdcOhms=0.014688 RdcOhms=0.014688 %imag=0.5 %loadloss=1.5 %noloadloss=0.25 XHL=2
New "Transformer.mdv201_hn_2_155_b39757-1b" phases=1 buses=[39757.2, x_39757.2, ] conns=[wye, wye, ] kVs=[7.199558, 0.24, ] kVAs=[37.5, 37.5, ] taps=[1, 1, ] buses=[39757.2, x_39757.2, ] conns=[wye, wye, ] kVs=[7.199558, 0.24, ] kVAs=[37.5, 37.5, ] taps=[1, 1, ] wdg=1 %R=0.7 RdcOhms=8.22427 wdg=2 %R=0.7 RdcOhms=0.0091392 RdcOhms=0.0091392 %imag=0.5 %loadloss=1.4 %noloadloss=0.25 XHL=2
New "Transformer.mdv201_hn_2_156_b39758-1b" phases=1 buses=[39758.2, x_39758.2, ] conns=[wye, wye, ] kVs=[7.199558, 0.24, ] kVAs=[25, 25, ] taps=[1, 1, ] buses=[39758.2, x_39758.2, ] conns=[wye, wye, ] kVs=[7.199558, 0.24, ] kVAs=[25, 25, ] taps=[1, 1, ] wdg=1 %R=0.75 RdcOhms=13.21758 wdg=2 %R=0.75 RdcOhms=0.014688 RdcOhms=0.014688 %imag=0.5 %loadloss=1.5 %noloadloss=0.25 XHL=2
New "Transformer.mdv201_hn_2_157_b14989-1b" phases=1 buses=[14989.2, x_14989.2, ] conns=[wye, wye, ] kVs=[7.199558, 0.24, ] kVAs=[10, 10, ] taps=[1, 1, ] buses=[14989.2, x_14989.2, ] conns=[wye, wye, ] kVs=[7.199558, 0.24, ] kVAs=[10, 10, ] taps=[1, 1, ] wdg=1 %R=0.85 RdcOhms=37.4498 wdg=2 %R=0.85 RdcOhms=0.041616 RdcOhms=0.041616 %imag=0.5 %loadloss=1.7 %noloadloss=0.25 XHL=2
New "Transformer.mdv201_hn_2_001_b14990-1b" phases=1 buses=[14990.2, x_14990.2, ] conns=[wye, wye, ] kVs=[7.199558, 0.24, ] kVAs=[25, 25, ] taps=[1, 1, ] buses=[14990.2, x_14990.2, ] conns=[wye, wye, ] kVs=[7.199558, 0.24, ] kVAs=[25, 25, ] taps=[1, 1, ] wdg=1 %R=0.75 RdcOhms=13.21758 wdg=2 %R=0.75 RdcOhms=0.014688 RdcOhms=0.014688 %imag=0.5 %loadloss=1.5 %noloadloss=0.25 XHL=2
New "Transformer.mdv201_hn_2_002_b15002-1b" phases=1 buses=[15002.2, x_15002.2, ] conns=[wye, wye, ] kVs=[7.199558, 0.24, ] kVAs=[15, 15, ] taps=[1, 1, ] buses=[15002.2, x_15002.2, ] conns=[wye, wye, ] kVs=[7.199558, 0.24, ] kVAs=[15, 15, ] taps=[1, 1, ] wdg=1 %R=0.825 RdcOhms=24.23222 wdg=2 %R=0.825 RdcOhms=0.026928 RdcOhms=0.026928 %imag=0.5 %loadloss=1.65 %noloadloss=0.25 XHL=2
New "Transformer.mdv201_hn_2_728_b15009-1b" phases=1 buses=[15009.2, x_15009.2, ] conns=[wye, wye, ] kVs=[7.199558, 0.24, ] kVAs=[10, 10, ] taps=[1, 1, ] buses=[15009.2, x_15009.2, ] conns=[wye, wye, ] kVs=[7.199558, 0.24, ] kVAs=[10, 10, ] taps=[1, 1, ] wdg=1 %R=0.85 RdcOhms=37.4498 wdg=2 %R=0.85 RdcOhms=0.041616 RdcOhms=0.041616 %imag=0.5 %loadloss=1.7 %noloadloss=0.25 XHL=2
New "Transformer.mdv201_hn_2_158_b14994-1b" phases=1 buses=[14994.2, x_14994.2, ] conns=[wye, wye, ] kVs=[7.199558, 0.24, ] kVAs=[25, 25, ] taps=[1, 1, ] buses=[14994.2, x_14994.2, ] conns=[wye, wye, ] kVs=[7.199558, 0.24, ] kVAs=[25, 25, ] taps=[1, 1, ] wdg=1 %R=0.75 RdcOhms=13.21758 wdg=2 %R=0.75 RdcOhms=0.014688 RdcOhms=0.014688 %imag=0.5 %loadloss=1.5 %noloadloss=0.25 XHL=2
New "Transformer.mdv201_hn_2_159_b6572-1b" phases=1 buses=[6572.2, x_6572.2, ] conns=[wye, wye, ] kVs=[7.199558, 0.24, ] kVAs=[15, 15, ] taps=[1, 1, ] buses=[6572.2, x_6572.2, ] conns=[wye, wye, ] kVs=[7.199558, 0.24, ] kVAs=[15, 15, ] taps=[1, 1, ] wdg=1 %R=0.825 RdcOhms=24.23222 wdg=2 %R=0.825 RdcOhms=0.026928 RdcOhms=0.026928 %imag=0.5 %loadloss=1.65 %noloadloss=0.25 XHL=2
New "Transformer.mdv201_hn_2_512_b1144252-1b" phases=1 buses=[1144252.2, x_1144252.2, ] conns=[wye, wye, ] kVs=[7.199558, 0.24, ] kVAs=[25, 25, ] taps=[1, 1, ] buses=[1144252.2, x_1144252.2, ] conns=[wye, wye, ] kVs=[7.199558, 0.24, ] kVAs=[25, 25, ] taps=[1, 1, ] wdg=1 %R=0.75 RdcOhms=13.21758 wdg=2 %R=0.75 RdcOhms=0.014688 RdcOhms=0.014688 %imag=0.5 %loadloss=1.5 %noloadloss=0.25 XHL=2
New "Transformer.mdv201_hn_2_160_b6573-1b" phases=1 buses=[6573.2, x_6573.2, ] conns=[wye, wye, ] kVs=[7.199558, 0.24, ] kVAs=[15, 15, ] taps=[1, 1, ] buses=[6573.2, x_6573.2, ] conns=[wye, wye, ] kVs=[7.199558, 0.24, ] kVAs=[15, 15, ] taps=[1, 1, ] wdg=1 %R=0.825 RdcOhms=24.23222 wdg=2 %R=0.825 RdcOhms=0.026928 RdcOhms=0.026928 %imag=0.5 %loadloss=1.65 %noloadloss=0.25 XHL=2
New "Transformer.mdv201_hn_2_933_b6571-1b" phases=1 buses=[6571.2, x_6571.2, ] conns=[wye, wye, ] kVs=[7.199558, 0.24, ] kVAs=[25, 25, ] taps=[1, 1, ] buses=[6571.2, x_6571.2, ] conns=[wye, wye, ] kVs=[7.199558, 0.24, ] kVAs=[25, 25, ] taps=[1, 1, ] wdg=1 %R=0.75 RdcOhms=13.21758 wdg=2 %R=0.75 RdcOhms=0.014688 RdcOhms=0.014688 %imag=0.5 %loadloss=1.5 %noloadloss=0.25 XHL=2
New "Transformer.mdv201_hn_2_934_b15006-1b" phases=1 buses=[15006.2, x_15006.2, ] conns=[wye, wye, ] kVs=[7.199558, 0.24, ] kVAs=[25, 25, ] taps=[1, 1, ] buses=[15006.2, x_15006.2, ] conns=[wye, wye, ] kVs=[7.199558, 0.24, ] kVAs=[25, 25, ] taps=[1, 1, ] wdg=1 %R=0.75 RdcOhms=13.21758 wdg=2 %R=0.75 RdcOhms=0.014688 RdcOhms=0.014688 %imag=0.5 %loadloss=1.5 %noloadloss=0.25 XHL=2
New "Transformer.mdv201_hn_2_937_b14993-1b" phases=1 buses=[14993.2, x_14993.2, ] conns=[wye, wye, ] kVs=[7.199558, 0.24, ] kVAs=[25, 25, ] taps=[1, 1, ] buses=[14993.2, x_14993.2, ] conns=[wye, wye, ] kVs=[7.199558, 0.24, ] kVAs=[25, 25, ] taps=[1, 1, ] wdg=1 %R=0.75 RdcOhms=13.21758 wdg=2 %R=0.75 RdcOhms=0.014688 RdcOhms=0.014688 %imag=0.5 %loadloss=1.5 %noloadloss=0.25 XHL=2
New "Transformer.mdv201_hn_2_938_b14992-1b" phases=1 buses=[14992.2, x_14992.2, ] conns=[wye, wye, ] kVs=[7.199558, 0.24, ] kVAs=[25, 25, ] taps=[1, 1, ] buses=[14992.2, x_14992.2, ] conns=[wye, wye, ] kVs=[7.199558, 0.24, ] kVAs=[25, 25, ] taps=[1, 1, ] wdg=1 %R=0.75 RdcOhms=13.21758 wdg=2 %R=0.75 RdcOhms=0.014688 RdcOhms=0.014688 %imag=0.5 %loadloss=1.5 %noloadloss=0.25 XHL=2
New "Transformer.mdv201_hn_2_940_b39775-1b" phases=1 buses=[39775.2, x_39775.2, ] conns=[wye, wye, ] kVs=[7.199558, 0.24, ] kVAs=[25, 25, ] taps=[1, 1, ] buses=[39775.2, x_39775.2, ] conns=[wye, wye, ] kVs=[7.199558, 0.24, ] kVAs=[25, 25, ] taps=[1, 1, ] wdg=1 %R=0.75 RdcOhms=13.21758 wdg=2 %R=0.75 RdcOhms=0.014688 RdcOhms=0.014688 %imag=0.5 %loadloss=1.5 %noloadloss=0.25 XHL=2
New "Transformer.mdv201_hn_2_941_b39760-1b" phases=1 buses=[39760.2, x_39760.2, ] conns=[wye, wye, ] kVs=[7.199558, 0.24, ] kVAs=[25, 25, ] taps=[1, 1, ] buses=[39760.2, x_39760.2, ] conns=[wye, wye, ] kVs=[7.199558, 0.24, ] kVAs=[25, 25, ] taps=[1, 1, ] wdg=1 %R=0.75 RdcOhms=13.21758 wdg=2 %R=0.75 RdcOhms=0.014688 RdcOhms=0.014688 %imag=0.5 %loadloss=1.5 %noloadloss=0.25 XHL=2
New "Transformer.mdv201_hn_2_961_b39761-1b" phases=1 buses=[39761.2, x_39761.2, ] conns=[wye, wye, ] kVs=[7.199558, 0.24, ] kVAs=[25, 25, ] taps=[1, 1, ] buses=[39761.2, x_39761.2, ] conns=[wye, wye, ] kVs=[7.199558, 0.24, ] kVAs=[25, 25, ] taps=[1, 1, ] wdg=1 %R=0.75 RdcOhms=13.21758 wdg=2 %R=0.75 RdcOhms=0.014688 RdcOhms=0.014688 %imag=0.5 %loadloss=1.5 %noloadloss=0.25 XHL=2
New "Transformer.mdv201_hn_2_939_b14991-1b" phases=1 buses=[14991.2, x_14991.2, ] conns=[wye, wye, ] kVs=[7.199558, 0.24, ] kVAs=[37.5, 37.5, ] taps=[1, 1, ] buses=[14991.2, x_14991.2, ] conns=[wye, wye, ] kVs=[7.199558, 0.24, ] kVAs=[37.5, 37.5, ] taps=[1, 1, ] wdg=1 %R=0.7 RdcOhms=8.22427 wdg=2 %R=0.7 RdcOhms=0.0091392 RdcOhms=0.0091392 %imag=0.5 %loadloss=1.4 %noloadloss=0.25 XHL=2
New "Transformer.mdv201_hn_2_981_b14997-1b" phases=1 buses=[14997.2, x_14997.2, ] conns=[wye, wye, ] kVs=[7.199558, 0.24, ] kVAs=[25, 25, ] taps=[1, 1, ] buses=[14997.2, x_14997.2, ] conns=[wye, wye, ] kVs=[7.199558, 0.24, ] kVAs=[25, 25, ] taps=[1, 1, ] wdg=1 %R=0.75 RdcOhms=13.21758 wdg=2 %R=0.75 RdcOhms=0.014688 RdcOhms=0.014688 %imag=0.5 %loadloss=1.5 %noloadloss=0.25 XHL=2
New "Transformer.mdv201_hn_2_936_b14995-1b" phases=1 buses=[14995.2, x_14995.2, ] conns=[wye, wye, ] kVs=[7.199558, 0.24, ] kVAs=[37.5, 37.5, ] taps=[1, 1, ] buses=[14995.2, x_14995.2, ] conns=[wye, wye, ] kVs=[7.199558, 0.24, ] kVAs=[37.5, 37.5, ] taps=[1, 1, ] wdg=1 %R=0.7 RdcOhms=8.22427 wdg=2 %R=0.7 RdcOhms=0.0091392 RdcOhms=0.0091392 %imag=0.5 %loadloss=1.4 %noloadloss=0.25 XHL=2
New "Transformer.mdv201_hn_2_953_b14996-1b" phases=1 buses=[14996.2, x_14996.2, ] conns=[wye, wye, ] kVs=[7.199558, 0.24, ] kVAs=[25, 25, ] taps=[1, 1, ] buses=[14996.2, x_14996.2, ] conns=[wye, wye, ] kVs=[7.199558, 0.24, ] kVAs=[25, 25, ] taps=[1, 1, ] wdg=1 %R=0.75 RdcOhms=13.21758 wdg=2 %R=0.75 RdcOhms=0.014688 RdcOhms=0.014688 %imag=0.5 %loadloss=1.5 %noloadloss=0.25 XHL=2
New "Transformer.mdv201_hn_2_954_b39771-1b" phases=1 buses=[39771.2, x_39771.2, ] conns=[wye, wye, ] kVs=[7.199558, 0.24, ] kVAs=[25, 25, ] taps=[1, 1, ] buses=[39771.2, x_39771.2, ] conns=[wye, wye, ] kVs=[7.199558, 0.24, ] kVAs=[25, 25, ] taps=[1, 1, ] wdg=1 %R=0.75 RdcOhms=13.21758 wdg=2 %R=0.75 RdcOhms=0.014688 RdcOhms=0.014688 %imag=0.5 %loadloss=1.5 %noloadloss=0.25 XHL=2
New "Transformer.mdv201_hn_2_955_b39752-1b" phases=1 buses=[39752.2, x_39752.2, ] conns=[wye, wye, ] kVs=[7.199558, 0.24, ] kVAs=[25, 25, ] taps=[1, 1, ] buses=[39752.2, x_39752.2, ] conns=[wye, wye, ] kVs=[7.199558, 0.24, ] kVAs=[25, 25, ] taps=[1, 1, ] wdg=1 %R=0.75 RdcOhms=13.21758 wdg=2 %R=0.75 RdcOhms=0.014688 RdcOhms=0.014688 %imag=0.5 %loadloss=1.5 %noloadloss=0.25 XHL=2
New "Transformer.mdv201_hn_2_956_b39753-1b" phases=1 buses=[39753.2, x_39753.2, ] conns=[wye, wye, ] kVs=[7.199558, 0.24, ] kVAs=[37.5, 37.5, ] taps=[1, 1, ] buses=[39753.2, x_39753.2, ] conns=[wye, wye, ] kVs=[7.199558, 0.24, ] kVAs=[37.5, 37.5, ] taps=[1, 1, ] wdg=1 %R=0.7 RdcOhms=8.22427 wdg=2 %R=0.7 RdcOhms=0.0091392 RdcOhms=0.0091392 %imag=0.5 %loadloss=1.4 %noloadloss=0.25 XHL=2
New "Transformer.mdv201_hn_2_164_b6574-1b" phases=1 buses=[6574.2, x_6574.2, ] conns=[wye, wye, ] kVs=[7.199558, 0.24, ] kVAs=[15, 15, ] taps=[1, 1, ] buses=[6574.2, x_6574.2, ] conns=[wye, wye, ] kVs=[7.199558, 0.24, ] kVAs=[15, 15, ] taps=[1, 1, ] wdg=1 %R=0.825 RdcOhms=24.23222 wdg=2 %R=0.825 RdcOhms=0.026928 RdcOhms=0.026928 %imag=0.5 %loadloss=1.65 %noloadloss=0.25 XHL=2
New "Transformer.mdv201_da_8_215_b1017348-1b" phases=1 buses=[1017348.2, x_1017348.2, ] conns=[wye, wye, ] kVs=[7.199558, 0.24, ] kVAs=[25, 25, ] taps=[1, 1, ] buses=[1017348.2, x_1017348.2, ] conns=[wye, wye, ] kVs=[7.199558, 0.24, ] kVAs=[25, 25, ] taps=[1, 1, ] wdg=1 %R=0.75 RdcOhms=13.21758 wdg=2 %R=0.75 RdcOhms=0.014688 RdcOhms=0.014688 %imag=0.5 %loadloss=1.5 %noloadloss=0.25 XHL=2
New "Transformer.mdv201_da_8_216_b1017349-1b" phases=1 buses=[1017349.2, x_1017349.2, ] conns=[wye, wye, ] kVs=[7.199558, 0.24, ] kVAs=[15, 15, ] taps=[1, 1, ] buses=[1017349.2, x_1017349.2, ] conns=[wye, wye, ] kVs=[7.199558, 0.24, ] kVAs=[15, 15, ] taps=[1, 1, ] wdg=1 %R=0.825 RdcOhms=24.23222 wdg=2 %R=0.825 RdcOhms=0.026928 RdcOhms=0.026928 %imag=0.5 %loadloss=1.65 %noloadloss=0.25 XHL=2
New "Transformer.mdv201_da_8_360_b8205-1b" phases=1 buses=[8205.2, x_8205.2, ] conns=[wye, wye, ] kVs=[7.199558, 0.24, ] kVAs=[25, 25, ] taps=[1, 1, ] buses=[8205.2, x_8205.2, ] conns=[wye, wye, ] kVs=[7.199558, 0.24, ] kVAs=[25, 25, ] taps=[1, 1, ] wdg=1 %R=0.75 RdcOhms=13.21758 wdg=2 %R=0.75 RdcOhms=0.014688 RdcOhms=0.014688 %imag=0.5 %loadloss=1.5 %noloadloss=0.25 XHL=2
New "Transformer.mdv201_da_8_218_b8204-1b" phases=1 buses=[8204.2, x_8204.2, ] conns=[wye, wye, ] kVs=[7.199558, 0.24, ] kVAs=[25, 25, ] taps=[1, 1, ] buses=[8204.2, x_8204.2, ] conns=[wye, wye, ] kVs=[7.199558, 0.24, ] kVAs=[25, 25, ] taps=[1, 1, ] wdg=1 %R=0.75 RdcOhms=13.21758 wdg=2 %R=0.75 RdcOhms=0.014688 RdcOhms=0.014688 %imag=0.5 %loadloss=1.5 %noloadloss=0.25 XHL=2
New "Transformer.mdv201_da_8_226_b8207-1b" phases=1 buses=[8207.2, x_8207.2, ] conns=[wye, wye, ] kVs=[7.199558, 0.24, ] kVAs=[15, 15, ] taps=[1, 1, ] buses=[8207.2, x_8207.2, ] conns=[wye, wye, ] kVs=[7.199558, 0.24, ] kVAs=[15, 15, ] taps=[1, 1, ] wdg=1 %R=0.825 RdcOhms=24.23222 wdg=2 %R=0.825 RdcOhms=0.026928 RdcOhms=0.026928 %imag=0.5 %loadloss=1.65 %noloadloss=0.25 XHL=2
New "Transformer.mdv201_da_8_139_b56756-1b" phases=1 buses=[56756.2, x_56756.2, ] conns=[wye, wye, ] kVs=[7.199558, 0.24, ] kVAs=[25, 25, ] taps=[1, 1, ] buses=[56756.2, x_56756.2, ] conns=[wye, wye, ] kVs=[7.199558, 0.24, ] kVAs=[25, 25, ] taps=[1, 1, ] wdg=1 %R=0.75 RdcOhms=13.21758 wdg=2 %R=0.75 RdcOhms=0.014688 RdcOhms=0.014688 %imag=0.5 %loadloss=1.5 %noloadloss=0.25 XHL=2
New "Transformer.mdv201_6568elb-1b" phases=1 buses=[6568.2, x_6568.2, ] conns=[wye, wye, ] kVs=[7.199558, 0.24, ] kVAs=[37.5, 37.5, ] taps=[1, 1, ] buses=[6568.2, x_6568.2, ] conns=[wye, wye, ] kVs=[7.199558, 0.24, ] kVAs=[37.5, 37.5, ] taps=[1, 1, ] wdg=1 %R=0.7 RdcOhms=8.22427 wdg=2 %R=0.7 RdcOhms=0.0091392 RdcOhms=0.0091392 %imag=0.5 %loadloss=1.4 %noloadloss=0.25 XHL=2
New "Transformer.mdv201_6569elb-1b" phases=1 buses=[6569.2, x_6569.2, ] conns=[wye, wye, ] kVs=[7.199558, 0.24, ] kVAs=[37.5, 37.5, ] taps=[1, 1, ] buses=[6569.2, x_6569.2, ] conns=[wye, wye, ] kVs=[7.199558, 0.24, ] kVAs=[37.5, 37.5, ] taps=[1, 1, ] wdg=1 %R=0.7 RdcOhms=8.22427 wdg=2 %R=0.7 RdcOhms=0.0091392 RdcOhms=0.0091392 %imag=0.5 %loadloss=1.4 %noloadloss=0.25 XHL=2
New "Transformer.mdv201_15008elb-1b" phases=1 buses=[15008.2, x_15008.2, ] conns=[wye, wye, ] kVs=[7.199558, 0.24, ] kVAs=[37.5, 37.5, ] taps=[1, 1, ] buses=[15008.2, x_15008.2, ] conns=[wye, wye, ] kVs=[7.199558, 0.24, ] kVAs=[37.5, 37.5, ] taps=[1, 1, ] wdg=1 %R=0.7 RdcOhms=8.22427 wdg=2 %R=0.7 RdcOhms=0.0091392 RdcOhms=0.0091392 %imag=0.5 %loadloss=1.4 %noloadloss=0.25 XHL=2
New "Transformer.mdv201_15004elb-1b" phases=1 buses=[15004.2, x_15004.2, ] conns=[wye, wye, ] kVs=[7.199558, 0.24, ] kVAs=[25, 25, ] taps=[1, 1, ] buses=[15004.2, x_15004.2, ] conns=[wye, wye, ] kVs=[7.199558, 0.24, ] kVAs=[25, 25, ] taps=[1, 1, ] wdg=1 %R=0.75 RdcOhms=13.21758 wdg=2 %R=0.75 RdcOhms=0.014688 RdcOhms=0.014688 %imag=0.5 %loadloss=1.5 %noloadloss=0.25 XHL=2
New "Transformer.mdv201_15005elb-1b" phases=1 buses=[15005.2, x_15005.2, ] conns=[wye, wye, ] kVs=[7.199558, 0.24, ] kVAs=[37.5, 37.5, ] taps=[1, 1, ] buses=[15005.2, x_15005.2, ] conns=[wye, wye, ] kVs=[7.199558, 0.24, ] kVAs=[37.5, 37.5, ] taps=[1, 1, ] wdg=1 %R=0.7 RdcOhms=8.22427 wdg=2 %R=0.7 RdcOhms=0.0091392 RdcOhms=0.0091392 %imag=0.5 %loadloss=1.4 %noloadloss=0.25 XHL=2
New "Transformer.mdv201_39759elb-1b" phases=1 buses=[39759.2, x_39759.2, ] conns=[wye, wye, ] kVs=[7.199558, 0.24, ] kVAs=[37.5, 37.5, ] taps=[1, 1, ] buses=[39759.2, x_39759.2, ] conns=[wye, wye, ] kVs=[7.199558, 0.24, ] kVAs=[37.5, 37.5, ] taps=[1, 1, ] wdg=1 %R=0.7 RdcOhms=8.22427 wdg=2 %R=0.7 RdcOhms=0.0091392 RdcOhms=0.0091392 %imag=0.5 %loadloss=1.4 %noloadloss=0.25 XHL=2
New "Transformer.mdv201_39756elb-1b" phases=1 buses=[39756.2, x_39756.2, ] conns=[wye, wye, ] kVs=[7.199558, 0.24, ] kVAs=[25, 25, ] taps=[1, 1, ] buses=[39756.2, x_39756.2, ] conns=[wye, wye, ] kVs=[7.199558, 0.24, ] kVAs=[25, 25, ] taps=[1, 1, ] wdg=1 %R=0.75 RdcOhms=13.21758 wdg=2 %R=0.75 RdcOhms=0.014688 RdcOhms=0.014688 %imag=0.5 %loadloss=1.5 %noloadloss=0.25 XHL=2
New "Transformer.mdv201_39754elb-1b" phases=1 buses=[39754.2, x_39754.2, ] conns=[wye, wye, ] kVs=[7.199558, 0.24, ] kVAs=[25, 25, ] taps=[1, 1, ] buses=[39754.2, x_39754.2, ] conns=[wye, wye, ] kVs=[7.199558, 0.24, ] kVAs=[25, 25, ] taps=[1, 1, ] wdg=1 %R=0.75 RdcOhms=13.21758 wdg=2 %R=0.75 RdcOhms=0.014688 RdcOhms=0.014688 %imag=0.5 %loadloss=1.5 %noloadloss=0.25 XHL=2
New "Transformer.mdv201_39755elb-1b" phases=1 buses=[39755.2, x_39755.2, ] conns=[wye, wye, ] kVs=[7.199558, 0.24, ] kVAs=[37.5, 37.5, ] taps=[1, 1, ] buses=[39755.2, x_39755.2, ] conns=[wye, wye, ] kVs=[7.199558, 0.24, ] kVAs=[37.5, 37.5, ] taps=[1, 1, ] wdg=1 %R=0.7 RdcOhms=8.22427 wdg=2 %R=0.7 RdcOhms=0.0091392 RdcOhms=0.0091392 %imag=0.5 %loadloss=1.4 %noloadloss=0.25 XHL=2
New "Transformer.mdv201_62302elb-1b" phases=1 buses=[62302.2, x_62302.2, ] conns=[wye, wye, ] kVs=[7.199558, 0.24, ] kVAs=[37.5, 37.5, ] taps=[1, 1, ] buses=[62302.2, x_62302.2, ] conns=[wye, wye, ] kVs=[7.199558, 0.24, ] kVAs=[37.5, 37.5, ] taps=[1, 1, ] wdg=1 %R=0.7 RdcOhms=8.22427 wdg=2 %R=0.7 RdcOhms=0.0091392 RdcOhms=0.0091392 %imag=0.5 %loadloss=1.4 %noloadloss=0.25 XHL=2
New "Transformer.mdv201_hn_2_336_b8196-1b" phases=1 buses=[8196.2, x_8196.2, ] conns=[wye, wye, ] kVs=[7.199558, 0.24, ] kVAs=[25, 25, ] taps=[1, 1, ] buses=[8196.2, x_8196.2, ] conns=[wye, wye, ] kVs=[7.199558, 0.24, ] kVAs=[25, 25, ] taps=[1, 1, ] wdg=1 %R=0.75 RdcOhms=13.21758 wdg=2 %R=0.75 RdcOhms=0.014688 RdcOhms=0.014688 %imag=0.5 %loadloss=1.5 %noloadloss=0.25 XHL=2
New "Transformer.mdv201_da_8_137_b8198-1b" phases=1 buses=[8198.2, x_8198.2, ] conns=[wye, wye, ] kVs=[7.199558, 0.24, ] kVAs=[37.5, 37.5, ] taps=[1, 1, ] buses=[8198.2, x_8198.2, ] conns=[wye, wye, ] kVs=[7.199558, 0.24, ] kVAs=[37.5, 37.5, ] taps=[1, 1, ] wdg=1 %R=0.7 RdcOhms=8.22427 wdg=2 %R=0.7 RdcOhms=0.0091392 RdcOhms=0.0091392 %imag=0.5 %loadloss=1.4 %noloadloss=0.25 XHL=2
New "Transformer.mdv201_da_8_276_b8195-1b" phases=1 buses=[8195.2, x_8195.2, ] conns=[wye, wye, ] kVs=[7.199558, 0.24, ] kVAs=[15, 15, ] taps=[1, 1, ] buses=[8195.2, x_8195.2, ] conns=[wye, wye, ] kVs=[7.199558, 0.24, ] kVAs=[15, 15, ] taps=[1, 1, ] wdg=1 %R=0.825 RdcOhms=24.23222 wdg=2 %R=0.825 RdcOhms=0.026928 RdcOhms=0.026928 %imag=0.5 %loadloss=1.65 %noloadloss=0.25 XHL=2
New "Transformer.mdv201_hn_21054_b1144247-1b" phases=1 buses=[1144247.2, x_1144247.2, ] conns=[wye, wye, ] kVs=[7.199558, 0.24, ] kVAs=[25, 25, ] taps=[1, 1, ] buses=[1144247.2, x_1144247.2, ] conns=[wye, wye, ] kVs=[7.199558, 0.24, ] kVAs=[25, 25, ] taps=[1, 1, ] wdg=1 %R=0.75 RdcOhms=13.21758 wdg=2 %R=0.75 RdcOhms=0.014688 RdcOhms=0.014688 %imag=0.5 %loadloss=1.5 %noloadloss=0.25 XHL=2
New "Transformer.mdv201_hn_2_706_c52532-1c" phases=1 buses=[52532.3, x_52532.3, ] conns=[wye, wye, ] kVs=[7.199558, 0.24, ] kVAs=[25, 25, ] taps=[1, 1, ] buses=[52532.3, x_52532.3, ] conns=[wye, wye, ] kVs=[7.199558, 0.24, ] kVAs=[25, 25, ] taps=[1, 1, ] wdg=1 %R=0.75 RdcOhms=13.21758 wdg=2 %R=0.75 RdcOhms=0.014688 RdcOhms=0.014688 %imag=0.5 %loadloss=1.5 %noloadloss=0.25 XHL=2
New "Transformer.mdv201_hn_2_707_c52530-1c" phases=1 buses=[52530.3, x_52530.3, ] conns=[wye, wye, ] kVs=[7.199558, 0.24, ] kVAs=[25, 25, ] taps=[1, 1, ] buses=[52530.3, x_52530.3, ] conns=[wye, wye, ] kVs=[7.199558, 0.24, ] kVAs=[25, 25, ] taps=[1, 1, ] wdg=1 %R=0.75 RdcOhms=13.21758 wdg=2 %R=0.75 RdcOhms=0.014688 RdcOhms=0.014688 %imag=0.5 %loadloss=1.5 %noloadloss=0.25 XHL=2
New "Transformer.mdv201_hn_2_708_c52527-1c" phases=1 buses=[52527.3, x_52527.3, ] conns=[wye, wye, ] kVs=[7.199558, 0.24, ] kVAs=[25, 25, ] taps=[1, 1, ] buses=[52527.3, x_52527.3, ] conns=[wye, wye, ] kVs=[7.199558, 0.24, ] kVAs=[25, 25, ] taps=[1, 1, ] wdg=1 %R=0.75 RdcOhms=13.21758 wdg=2 %R=0.75 RdcOhms=0.014688 RdcOhms=0.014688 %imag=0.5 %loadloss=1.5 %noloadloss=0.25 XHL=2
New "Transformer.mdv201_hn_2_716_c52523-1c" phases=1 buses=[52523.3, x_52523.3, ] conns=[wye, wye, ] kVs=[7.199558, 0.24, ] kVAs=[15, 15, ] taps=[1, 1, ] buses=[52523.3, x_52523.3, ] conns=[wye, wye, ] kVs=[7.199558, 0.24, ] kVAs=[15, 15, ] taps=[1, 1, ] wdg=1 %R=0.825 RdcOhms=24.23222 wdg=2 %R=0.825 RdcOhms=0.026928 RdcOhms=0.026928 %imag=0.5 %loadloss=1.65 %noloadloss=0.25 XHL=2
New "Transformer.mdv201_hn_2_438_c14847-1c" phases=1 buses=[14847.3, x_14847.3, ] conns=[wye, wye, ] kVs=[7.199558, 0.24, ] kVAs=[25, 25, ] taps=[1, 1, ] buses=[14847.3, x_14847.3, ] conns=[wye, wye, ] kVs=[7.199558, 0.24, ] kVAs=[25, 25, ] taps=[1, 1, ] wdg=1 %R=0.75 RdcOhms=13.21758 wdg=2 %R=0.75 RdcOhms=0.014688 RdcOhms=0.014688 %imag=0.5 %loadloss=1.5 %noloadloss=0.25 XHL=2
New "Transformer.mdv201_hn_2_928_c94732-1c" phases=1 buses=[94732.3, x_94732.3, ] conns=[wye, wye, ] kVs=[7.199558, 0.24, ] kVAs=[25, 25, ] taps=[1, 1, ] buses=[94732.3, x_94732.3, ] conns=[wye, wye, ] kVs=[7.199558, 0.24, ] kVAs=[25, 25, ] taps=[1, 1, ] wdg=1 %R=0.75 RdcOhms=13.21758 wdg=2 %R=0.75 RdcOhms=0.014688 RdcOhms=0.014688 %imag=0.5 %loadloss=1.5 %noloadloss=0.25 XHL=2
New "Transformer.mdv201_hn_2_437_c14848-1c" phases=1 buses=[14848.3, x_14848.3, ] conns=[wye, wye, ] kVs=[7.199558, 0.24, ] kVAs=[15, 15, ] taps=[1, 1, ] buses=[14848.3, x_14848.3, ] conns=[wye, wye, ] kVs=[7.199558, 0.24, ] kVAs=[15, 15, ] taps=[1, 1, ] wdg=1 %R=0.825 RdcOhms=24.23222 wdg=2 %R=0.825 RdcOhms=0.026928 RdcOhms=0.026928 %imag=0.5 %loadloss=1.65 %noloadloss=0.25 XHL=2
New "Transformer.mdv201_hn_2_064_c14871-1c" phases=1 buses=[14871.3, x_14871.3, ] conns=[wye, wye, ] kVs=[7.199558, 0.24, ] kVAs=[37.5, 37.5, ] taps=[1, 1, ] buses=[14871.3, x_14871.3, ] conns=[wye, wye, ] kVs=[7.199558, 0.24, ] kVAs=[37.5, 37.5, ] taps=[1, 1, ] wdg=1 %R=0.7 RdcOhms=8.22427 wdg=2 %R=0.7 RdcOhms=0.0091392 RdcOhms=0.0091392 %imag=0.5 %loadloss=1.4 %noloadloss=0.25 XHL=2
New "Transformer.mdv201_hn_2_127_c63708-1c" phases=1 buses=[63708.3, x_63708.3, ] conns=[wye, wye, ] kVs=[7.199558, 0.24, ] kVAs=[25, 25, ] taps=[1, 1, ] buses=[63708.3, x_63708.3, ] conns=[wye, wye, ] kVs=[7.199558, 0.24, ] kVAs=[25, 25, ] taps=[1, 1, ] wdg=1 %R=0.75 RdcOhms=13.21758 wdg=2 %R=0.75 RdcOhms=0.014688 RdcOhms=0.014688 %imag=0.5 %loadloss=1.5 %noloadloss=0.25 XHL=2
New "Transformer.mdv201_hn_2_123_c28299-1c" phases=1 buses=[28299.3, x_28299.3, ] conns=[wye, wye, ] kVs=[7.199558, 0.24, ] kVAs=[25, 25, ] taps=[1, 1, ] buses=[28299.3, x_28299.3, ] conns=[wye, wye, ] kVs=[7.199558, 0.24, ] kVAs=[25, 25, ] taps=[1, 1, ] wdg=1 %R=0.75 RdcOhms=13.21758 wdg=2 %R=0.75 RdcOhms=0.014688 RdcOhms=0.014688 %imag=0.5 %loadloss=1.5 %noloadloss=0.25 XHL=2
New "Transformer.mdv201_hn_2_357_c28293-1c" phases=1 buses=[28293.3, x_28293.3, ] conns=[wye, wye, ] kVs=[7.199558, 0.24, ] kVAs=[15, 15, ] taps=[1, 1, ] buses=[28293.3, x_28293.3, ] conns=[wye, wye, ] kVs=[7.199558, 0.24, ] kVAs=[15, 15, ] taps=[1, 1, ] wdg=1 %R=0.825 RdcOhms=24.23222 wdg=2 %R=0.825 RdcOhms=0.026928 RdcOhms=0.026928 %imag=0.5 %loadloss=1.65 %noloadloss=0.25 XHL=2
New "Transformer.mdv201_hn_2_121_c28294-1c" phases=1 buses=[28294.3, x_28294.3, ] conns=[wye, wye, ] kVs=[7.199558, 0.24, ] kVAs=[25, 25, ] taps=[1, 1, ] buses=[28294.3, x_28294.3, ] conns=[wye, wye, ] kVs=[7.199558, 0.24, ] kVAs=[25, 25, ] taps=[1, 1, ] wdg=1 %R=0.75 RdcOhms=13.21758 wdg=2 %R=0.75 RdcOhms=0.014688 RdcOhms=0.014688 %imag=0.5 %loadloss=1.5 %noloadloss=0.25 XHL=2
New "Transformer.mdv201_hn_2_126_c63704-1c" phases=1 buses=[63704.3, x_63704.3, ] conns=[wye, wye, ] kVs=[7.199558, 0.24, ] kVAs=[37.5, 37.5, ] taps=[1, 1, ] buses=[63704.3, x_63704.3, ] conns=[wye, wye, ] kVs=[7.199558, 0.24, ] kVAs=[37.5, 37.5, ] taps=[1, 1, ] wdg=1 %R=0.7 RdcOhms=8.22427 wdg=2 %R=0.7 RdcOhms=0.0091392 RdcOhms=0.0091392 %imag=0.5 %loadloss=1.4 %noloadloss=0.25 XHL=2
New "Transformer.mdv201_hn_2_718_c14876-1c" phases=1 buses=[14876.3, x_14876.3, ] conns=[wye, wye, ] kVs=[7.199558, 0.24, ] kVAs=[37.5, 37.5, ] taps=[1, 1, ] buses=[14876.3, x_14876.3, ] conns=[wye, wye, ] kVs=[7.199558, 0.24, ] kVAs=[37.5, 37.5, ] taps=[1, 1, ] wdg=1 %R=0.7 RdcOhms=8.22427 wdg=2 %R=0.7 RdcOhms=0.0091392 RdcOhms=0.0091392 %imag=0.5 %loadloss=1.4 %noloadloss=0.25 XHL=2
New "Transformer.mdv201_hn_2_719_c14872-1c" phases=1 buses=[14872.3, x_14872.3, ] conns=[wye, wye, ] kVs=[7.199558, 0.24, ] kVAs=[25, 25, ] taps=[1, 1, ] buses=[14872.3, x_14872.3, ] conns=[wye, wye, ] kVs=[7.199558, 0.24, ] kVAs=[25, 25, ] taps=[1, 1, ] wdg=1 %R=0.75 RdcOhms=13.21758 wdg=2 %R=0.75 RdcOhms=0.014688 RdcOhms=0.014688 %imag=0.5 %loadloss=1.5 %noloadloss=0.25 XHL=2
New "Transformer.mdv201_hn_2_720_c14849-1c" phases=1 buses=[14849.3, x_14849.3, ] conns=[wye, wye, ] kVs=[7.199558, 0.24, ] kVAs=[37.5, 37.5, ] taps=[1, 1, ] buses=[14849.3, x_14849.3, ] conns=[wye, wye, ] kVs=[7.199558, 0.24, ] kVAs=[37.5, 37.5, ] taps=[1, 1, ] wdg=1 %R=0.7 RdcOhms=8.22427 wdg=2 %R=0.7 RdcOhms=0.0091392 RdcOhms=0.0091392 %imag=0.5 %loadloss=1.4 %noloadloss=0.25 XHL=2
New "Transformer.mdv201_hn_2_721_c14850-1c" phases=1 buses=[14850.3, x_14850.3, ] conns=[wye, wye, ] kVs=[7.199558, 0.24, ] kVAs=[37.5, 37.5, ] taps=[1, 1, ] buses=[14850.3, x_14850.3, ] conns=[wye, wye, ] kVs=[7.199558, 0.24, ] kVAs=[37.5, 37.5, ] taps=[1, 1, ] wdg=1 %R=0.7 RdcOhms=8.22427 wdg=2 %R=0.7 RdcOhms=0.0091392 RdcOhms=0.0091392 %imag=0.5 %loadloss=1.4 %noloadloss=0.25 XHL=2
New "Transformer.mdv201_hn_2_722_c52525-1c" phases=1 buses=[52525.3, x_52525.3, ] conns=[wye, wye, ] kVs=[7.199558, 0.24, ] kVAs=[25, 25, ] taps=[1, 1, ] buses=[52525.3, x_52525.3, ] conns=[wye, wye, ] kVs=[7.199558, 0.24, ] kVAs=[25, 25, ] taps=[1, 1, ] wdg=1 %R=0.75 RdcOhms=13.21758 wdg=2 %R=0.75 RdcOhms=0.014688 RdcOhms=0.014688 %imag=0.5 %loadloss=1.5 %noloadloss=0.25 XHL=2
New "Transformer.mdv201_hn_2_709_c52528-1c" phases=1 buses=[52528.3, x_52528.3, ] conns=[wye, wye, ] kVs=[7.199558, 0.24, ] kVAs=[25, 25, ] taps=[1, 1, ] buses=[52528.3, x_52528.3, ] conns=[wye, wye, ] kVs=[7.199558, 0.24, ] kVAs=[25, 25, ] taps=[1, 1, ] wdg=1 %R=0.75 RdcOhms=13.21758 wdg=2 %R=0.75 RdcOhms=0.014688 RdcOhms=0.014688 %imag=0.5 %loadloss=1.5 %noloadloss=0.25 XHL=2
New "Transformer.mdv201_hn_2_710_c52529-1c" phases=1 buses=[52529.3, x_52529.3, ] conns=[wye, wye, ] kVs=[7.199558, 0.24, ] kVAs=[25, 25, ] taps=[1, 1, ] buses=[52529.3, x_52529.3, ] conns=[wye, wye, ] kVs=[7.199558, 0.24, ] kVAs=[25, 25, ] taps=[1, 1, ] wdg=1 %R=0.75 RdcOhms=13.21758 wdg=2 %R=0.75 RdcOhms=0.014688 RdcOhms=0.014688 %imag=0.5 %loadloss=1.5 %noloadloss=0.25 XHL=2
New "Transformer.mdv201_hn_2_681_a28225-1a" phases=1 buses=[28225.1, x_28225.1, ] conns=[wye, wye, ] kVs=[7.199558, 0.24, ] kVAs=[37.5, 37.5, ] taps=[1, 1, ] buses=[28225.1, x_28225.1, ] conns=[wye, wye, ] kVs=[7.199558, 0.24, ] kVAs=[37.5, 37.5, ] taps=[1, 1, ] wdg=1 %R=0.7 RdcOhms=8.22427 wdg=2 %R=0.7 RdcOhms=0.0091392 RdcOhms=0.0091392 %imag=0.5 %loadloss=1.4 %noloadloss=0.25 XHL=2
New "Transformer.mdv201_hn_2_682_a39565-1a" phases=1 buses=[39565.1, x_39565.1, ] conns=[wye, wye, ] kVs=[7.199558, 0.24, ] kVAs=[37.5, 37.5, ] taps=[1, 1, ] buses=[39565.1, x_39565.1, ] conns=[wye, wye, ] kVs=[7.199558, 0.24, ] kVAs=[37.5, 37.5, ] taps=[1, 1, ] wdg=1 %R=0.7 RdcOhms=8.22427 wdg=2 %R=0.7 RdcOhms=0.0091392 RdcOhms=0.0091392 %imag=0.5 %loadloss=1.4 %noloadloss=0.25 XHL=2
New "Transformer.mdv201_hn_2_683_a39601-1a" phases=1 buses=[39601.1, x_39601.1, ] conns=[wye, wye, ] kVs=[7.199558, 0.24, ] kVAs=[25, 25, ] taps=[1, 1, ] buses=[39601.1, x_39601.1, ] conns=[wye, wye, ] kVs=[7.199558, 0.24, ] kVAs=[25, 25, ] taps=[1, 1, ] wdg=1 %R=0.75 RdcOhms=13.21758 wdg=2 %R=0.75 RdcOhms=0.014688 RdcOhms=0.014688 %imag=0.5 %loadloss=1.5 %noloadloss=0.25 XHL=2
New "Transformer.mdv201_63677fuse-1a" phases=1 buses=[63677.1, x_63677.1, ] conns=[wye, wye, ] kVs=[7.199558, 0.24, ] kVAs=[25, 25, ] taps=[1, 1, ] buses=[63677.1, x_63677.1, ] conns=[wye, wye, ] kVs=[7.199558, 0.24, ] kVAs=[25, 25, ] taps=[1, 1, ] wdg=1 %R=0.75 RdcOhms=13.21758 wdg=2 %R=0.75 RdcOhms=0.014688 RdcOhms=0.014688 %imag=0.5 %loadloss=1.5 %noloadloss=0.25 XHL=2
New "Transformer.mdv201_hn_2_711_a63676-1a" phases=1 buses=[63676.1, x_63676.1, ] conns=[wye, wye, ] kVs=[7.199558, 0.24, ] kVAs=[25, 25, ] taps=[1, 1, ] buses=[63676.1, x_63676.1, ] conns=[wye, wye, ] kVs=[7.199558, 0.24, ] kVAs=[25, 25, ] taps=[1, 1, ] wdg=1 %R=0.75 RdcOhms=13.21758 wdg=2 %R=0.75 RdcOhms=0.014688 RdcOhms=0.014688 %imag=0.5 %loadloss=1.5 %noloadloss=0.25 XHL=2
New "Transformer.mdv201_hn_2_712_a63678-1a" phases=1 buses=[63678.1, x_63678.1, ] conns=[wye, wye, ] kVs=[7.199558, 0.24, ] kVAs=[37.5, 37.5, ] taps=[1, 1, ] buses=[63678.1, x_63678.1, ] conns=[wye, wye, ] kVs=[7.199558, 0.24, ] kVAs=[37.5, 37.5, ] taps=[1, 1, ] wdg=1 %R=0.7 RdcOhms=8.22427 wdg=2 %R=0.7 RdcOhms=0.0091392 RdcOhms=0.0091392 %imag=0.5 %loadloss=1.4 %noloadloss=0.25 XHL=2
New "Transformer.mdv201_hn_2_713_a63679-1a" phases=1 buses=[63679.1, x_63679.1, ] conns=[wye, wye, ] kVs=[7.199558, 0.24, ] kVAs=[25, 25, ] taps=[1, 1, ] buses=[63679.1, x_63679.1, ] conns=[wye, wye, ] kVs=[7.199558, 0.24, ] kVAs=[25, 25, ] taps=[1, 1, ] wdg=1 %R=0.75 RdcOhms=13.21758 wdg=2 %R=0.75 RdcOhms=0.014688 RdcOhms=0.014688 %imag=0.5 %loadloss=1.5 %noloadloss=0.25 XHL=2
New "Transformer.mdv201_hn_2_635_ac63666-1a" phases=1 buses=[63666.1, x_63666.1, ] conns=[wye, wye, ] kVs=[7.199558, 0.24, ] kVAs=[25, 25, ] taps=[1, 1, ] buses=[63666.1, x_63666.1, ] conns=[wye, wye, ] kVs=[7.199558, 0.24, ] kVAs=[25, 25, ] taps=[1, 1, ] wdg=1 %R=0.75 RdcOhms=13.21758 wdg=2 %R=0.75 RdcOhms=0.014688 RdcOhms=0.014688 %imag=0.5 %loadloss=1.5 %noloadloss=0.25 XHL=2
New "Transformer.mdv201_hn_2_637_c28240-1c" phases=1 buses=[28240.3, x_28240.3, ] conns=[wye, wye, ] kVs=[7.199558, 0.24, ] kVAs=[25, 25, ] taps=[1, 1, ] buses=[28240.3, x_28240.3, ] conns=[wye, wye, ] kVs=[7.199558, 0.24, ] kVAs=[25, 25, ] taps=[1, 1, ] wdg=1 %R=0.75 RdcOhms=13.21758 wdg=2 %R=0.75 RdcOhms=0.014688 RdcOhms=0.014688 %imag=0.5 %loadloss=1.5 %noloadloss=0.25 XHL=2
New "Transformer.mdv201_hn_2_638_c28237-1c" phases=1 buses=[28237.3, x_28237.3, ] conns=[wye, wye, ] kVs=[7.199558, 0.24, ] kVAs=[25, 25, ] taps=[1, 1, ] buses=[28237.3, x_28237.3, ] conns=[wye, wye, ] kVs=[7.199558, 0.24, ] kVAs=[25, 25, ] taps=[1, 1, ] wdg=1 %R=0.75 RdcOhms=13.21758 wdg=2 %R=0.75 RdcOhms=0.014688 RdcOhms=0.014688 %imag=0.5 %loadloss=1.5 %noloadloss=0.25 XHL=2
New "Transformer.mdv201_hn_2_640_ac28251-1a" phases=1 buses=[28251.1, x_28251.1, ] conns=[wye, wye, ] kVs=[7.199558, 0.24, ] kVAs=[37.5, 37.5, ] taps=[1, 1, ] buses=[28251.1, x_28251.1, ] conns=[wye, wye, ] kVs=[7.199558, 0.24, ] kVAs=[37.5, 37.5, ] taps=[1, 1, ] wdg=1 %R=0.7 RdcOhms=8.22427 wdg=2 %R=0.7 RdcOhms=0.0091392 RdcOhms=0.0091392 %imag=0.5 %loadloss=1.4 %noloadloss=0.25 XHL=2
New "Transformer.mdv201_hn_2_641_ac14893-1a" phases=1 buses=[14893.1, x_14893.1, ] conns=[wye, wye, ] kVs=[7.199558, 0.24, ] kVAs=[25, 25, ] taps=[1, 1, ] buses=[14893.1, x_14893.1, ] conns=[wye, wye, ] kVs=[7.199558, 0.24, ] kVAs=[25, 25, ] taps=[1, 1, ] wdg=1 %R=0.75 RdcOhms=13.21758 wdg=2 %R=0.75 RdcOhms=0.014688 RdcOhms=0.014688 %imag=0.5 %loadloss=1.5 %noloadloss=0.25 XHL=2
New "Transformer.mdv201_hn_2_643_a28241-1a" phases=1 buses=[28241.1, x_28241.1, ] conns=[wye, wye, ] kVs=[7.199558, 0.24, ] kVAs=[25, 25, ] taps=[1, 1, ] buses=[28241.1, x_28241.1, ] conns=[wye, wye, ] kVs=[7.199558, 0.24, ] kVAs=[25, 25, ] taps=[1, 1, ] wdg=1 %R=0.75 RdcOhms=13.21758 wdg=2 %R=0.75 RdcOhms=0.014688 RdcOhms=0.014688 %imag=0.5 %loadloss=1.5 %noloadloss=0.25 XHL=2
...