Version8/Distrib/Examples/ADiakoptics/TnDSystem/Transmission/Distribution/sub/Loads.dss
New "Load.mdv201_hn_2_424_a784-1a0" phases=1 bus1=x_784_1.1 kV=0.24 kW=4.4555065 pf=0.9234 status=variable model=4 CVRwatts=0.8 CVRvars=3 class=1 yearly=Residential conn=wye
New "Load.mdv201_hn_2_424_a784-1a1" phases=1 bus1=x_784_2.1 kV=0.24 kW=4.4555065 pf=0.9234 status=variable model=4 CVRwatts=0.8 CVRvars=3 class=1 yearly=Residential conn=wye
New "Load.mdv201_hn_2_423_a785-1a0" phases=1 bus1=x_785_1.1 kV=0.24 kW=4.187027 pf=0.9234 status=variable model=4 CVRwatts=0.8 CVRvars=3 class=1 yearly=Residential conn=wye
New "Load.mdv201_hn_2_422_a790-1a0" phases=1 bus1=x_790_1.1 kV=0.24 kW=5.593149 pf=0.9234 status=variable model=4 CVRwatts=0.8 CVRvars=3 class=1 yearly=Residential conn=wye
New "Load.mdv201_hn_2_422_a790-1a1" phases=1 bus1=x_790_2.1 kV=0.24 kW=5.593149 pf=0.9234 status=variable model=4 CVRwatts=0.8 CVRvars=3 class=1 yearly=Residential conn=wye
New "Load.mdv201_hn_2_421_a808-1a0" phases=1 bus1=x_808_1.1 kV=0.24 kW=6.303523 pf=0.9234 status=variable model=4 CVRwatts=0.8 CVRvars=3 class=1 yearly=Residential conn=wye
New "Load.mdv201_hn_2_420_a814-1a0" phases=1 bus1=x_814_1.1 kV=0.24 kW=6.23736066666667 pf=0.9234 status=variable model=4 CVRwatts=0.8 CVRvars=3 class=1 yearly=Residential conn=wye
New "Load.mdv201_hn_2_420_a814-1a1" phases=1 bus1=x_814_2.1 kV=0.24 kW=6.23736066666667 pf=0.9234 status=variable model=4 CVRwatts=0.8 CVRvars=3 class=1 yearly=Residential conn=wye
New "Load.mdv201_hn_2_420_a814-1a2" phases=1 bus1=x_814_3.1 kV=0.24 kW=6.23736066666667 pf=0.9234 status=variable model=4 CVRwatts=0.8 CVRvars=3 class=1 yearly=Residential conn=wye
New "Load.mdv201_hn_2_419_a827-1a0" phases=1 bus1=x_827_1.1 kV=0.24 kW=3.948843 pf=0.9234 status=variable model=4 CVRwatts=0.8 CVRvars=3 class=1 yearly=Residential conn=wye
New "Load.mdv201_hn_2_418_a835-1a0" phases=1 bus1=x_835_1.1 kV=0.24 kW=4.2225455 pf=0.9234 status=variable model=4 CVRwatts=0.8 CVRvars=3 class=1 yearly=Residential conn=wye
New "Load.mdv201_hn_2_418_a835-1a1" phases=1 bus1=x_835_2.1 kV=0.24 kW=4.2225455 pf=0.9234 status=variable model=4 CVRwatts=0.8 CVRvars=3 class=1 yearly=Residential conn=wye
New "Load.mdv201_hn_2_417_a842-1a0" phases=1 bus1=x_842_1.1 kV=0.24 kW=3.173699 pf=0.9234 status=variable model=4 CVRwatts=0.8 CVRvars=3 class=1 yearly=Residential conn=wye
New "Load.mdv201_hn_2_416_a844-1a0" phases=1 bus1=x_844_1.1 kV=0.24 kW=4.6717525 pf=0.9234 status=variable model=4 CVRwatts=0.8 CVRvars=3 class=1 yearly=Residential conn=wye
New "Load.mdv201_hn_2_416_a844-1a1" phases=1 bus1=x_844_2.1 kV=0.24 kW=4.6717525 pf=0.9234 status=variable model=4 CVRwatts=0.8 CVRvars=3 class=1 yearly=Residential conn=wye
New "Load.mdv201_hn_2_414_a843-1a0" phases=1 bus1=x_843_1.1 kV=0.24 kW=8.29048 pf=0.9234 status=variable model=4 CVRwatts=0.8 CVRvars=3 class=1 yearly=Residential conn=wye
New "Load.mdv201_hn_2_413_a838-1a0" phases=1 bus1=x_838_1.1 kV=0.24 kW=4.891829 pf=0.9234 status=variable model=4 CVRwatts=0.8 CVRvars=3 class=1 yearly=Residential conn=wye
New "Load.mdv201_hn_2_413_a838-1a1" phases=1 bus1=x_838_2.1 kV=0.24 kW=4.891829 pf=0.9234 status=variable model=4 CVRwatts=0.8 CVRvars=3 class=1 yearly=Residential conn=wye
New "Load.mdv201_hn_2_413_a838-1a2" phases=1 bus1=x_838_3.1 kV=0.24 kW=4.891829 pf=0.9234 status=variable model=4 CVRwatts=0.8 CVRvars=3 class=1 yearly=Residential conn=wye
New "Load.mdv201_hn_2_412_a832-1a0" phases=1 bus1=x_832_1.1 kV=0.24 kW=3.32900666666667 pf=0.9234 status=variable model=4 CVRwatts=0.8 CVRvars=3 class=1 yearly=Residential conn=wye
New "Load.mdv201_hn_2_412_a832-1a1" phases=1 bus1=x_832_2.1 kV=0.24 kW=3.32900666666667 pf=0.9234 status=variable model=4 CVRwatts=0.8 CVRvars=3 class=1 yearly=Residential conn=wye
New "Load.mdv201_hn_2_412_a832-1a2" phases=1 bus1=x_832_3.1 kV=0.24 kW=3.32900666666667 pf=0.9234 status=variable model=4 CVRwatts=0.8 CVRvars=3 class=1 yearly=Residential conn=wye
New "Load.mdv201_hn_2_411_a828-1a0" phases=1 bus1=x_828_1.1 kV=0.24 kW=4.348602 pf=0.9234 status=variable model=4 CVRwatts=0.8 CVRvars=3 class=1 yearly=Residential conn=wye
New "Load.mdv201_hn_2_411_a828-1a1" phases=1 bus1=x_828_2.1 kV=0.24 kW=4.348602 pf=0.9234 status=variable model=4 CVRwatts=0.8 CVRvars=3 class=1 yearly=Residential conn=wye
New "Load.mdv201_hn_2_411_a828-1a2" phases=1 bus1=x_828_3.1 kV=0.24 kW=4.348602 pf=0.9234 status=variable model=4 CVRwatts=0.8 CVRvars=3 class=1 yearly=Residential conn=wye
New "Load.mdv201_hn_2_410_a819-1a0" phases=1 bus1=x_819_1.1 kV=0.24 kW=4.802684 pf=0.9234 status=variable model=4 CVRwatts=0.8 CVRvars=3 class=1 yearly=Residential conn=wye
New "Load.mdv201_hn_2_410_a819-1a1" phases=1 bus1=x_819_2.1 kV=0.24 kW=4.802684 pf=0.9234 status=variable model=4 CVRwatts=0.8 CVRvars=3 class=1 yearly=Residential conn=wye
New "Load.mdv201_hn_2_410_a819-1a2" phases=1 bus1=x_819_3.1 kV=0.24 kW=4.802684 pf=0.9234 status=variable model=4 CVRwatts=0.8 CVRvars=3 class=1 yearly=Residential conn=wye
New "Load.mdv201_hn_2_409_a820-1a0" phases=1 bus1=x_820_1.1 kV=0.24 kW=3.963468 pf=0.9234 status=variable model=4 CVRwatts=0.8 CVRvars=3 class=1 yearly=Residential conn=wye
New "Load.mdv201_hn_2_409_a820-1a1" phases=1 bus1=x_820_2.1 kV=0.24 kW=3.963468 pf=0.9234 status=variable model=4 CVRwatts=0.8 CVRvars=3 class=1 yearly=Residential conn=wye
New "Load.mdv201_795elb-1a0" phases=1 bus1=x_795_1.1 kV=0.24 kW=5.3413845 pf=0.9234 status=variable model=4 CVRwatts=0.8 CVRvars=3 class=2 yearly=Commercial_SM conn=wye
New "Load.mdv201_795elb-1a1" phases=1 bus1=x_795_2.1 kV=0.24 kW=5.3413845 pf=0.9234 status=variable model=4 CVRwatts=0.8 CVRvars=3 class=2 yearly=Commercial_SM conn=wye
New "Load.mdv201_hn_2_436_abc63639-1b0" phases=1 bus1=x_63639_1.2 kV=0.24 kW=7.101012 pf=0.9342 status=variable model=4 CVRwatts=0.8 CVRvars=3 class=1 yearly=Residential conn=wye
New "Load.mdv201_hn_2_435_abc63643-1b0" phases=1 bus1=x_63643_1.2 kV=0.24 kW=3.3171635 pf=0.9342 status=variable model=4 CVRwatts=0.8 CVRvars=3 class=1 yearly=Residential conn=wye
New "Load.mdv201_hn_2_435_abc63643-1b1" phases=1 bus1=x_63643_2.2 kV=0.24 kW=3.3171635 pf=0.9342 status=variable model=4 CVRwatts=0.8 CVRvars=3 class=1 yearly=Residential conn=wye
New "Load.mdv201_hn_2_434_abc63645-1b0" phases=1 bus1=x_63645_1.2 kV=0.24 kW=4.8220685 pf=0.9342 status=variable model=4 CVRwatts=0.8 CVRvars=3 class=1 yearly=Residential conn=wye
New "Load.mdv201_hn_2_434_abc63645-1b1" phases=1 bus1=x_63645_2.2 kV=0.24 kW=4.8220685 pf=0.9342 status=variable model=4 CVRwatts=0.8 CVRvars=3 class=1 yearly=Residential conn=wye
New "Load.mdv201_hn_2_408_abc63655-1b0" phases=1 bus1=x_63655_1.2 kV=0.24 kW=4.883745 pf=0.9342 status=variable model=4 CVRwatts=0.8 CVRvars=3 class=1 yearly=Residential conn=wye
New "Load.mdv201_hn_2_408_abc63655-1b1" phases=1 bus1=x_63655_2.2 kV=0.24 kW=4.883745 pf=0.9342 status=variable model=4 CVRwatts=0.8 CVRvars=3 class=1 yearly=Residential conn=wye
New "Load.mdv201_hn_2_395_abc63657-1b0" phases=1 bus1=x_63657_1.2 kV=0.24 kW=2.808333 pf=0.9342 status=variable model=4 CVRwatts=0.8 CVRvars=3 class=1 yearly=Residential conn=wye
New "Load.mdv201_hn_2_394_abc63658-1b0" phases=1 bus1=x_63658_1.2 kV=0.24 kW=5.361737 pf=0.9342 status=variable model=4 CVRwatts=0.8 CVRvars=3 class=1 yearly=Residential conn=wye
New "Load.mdv201_hn_2_146_abc63663-1a0" phases=1 bus1=x_63663_1.1 kV=0.24 kW=6.234575 pf=0.9234 status=variable model=4 CVRwatts=0.8 CVRvars=3 class=1 yearly=Residential conn=wye
New "Load.mdv201_hn_2_015_abc63665-1a0" phases=1 bus1=x_63665_1.1 kV=0.24 kW=6.2899425 pf=0.9234 status=variable model=4 CVRwatts=0.8 CVRvars=3 class=1 yearly=Residential conn=wye
New "Load.mdv201_hn_2_015_abc63665-1a1" phases=1 bus1=x_63665_2.1 kV=0.24 kW=6.2899425 pf=0.9234 status=variable model=4 CVRwatts=0.8 CVRvars=3 class=1 yearly=Residential conn=wye
New "Load.mdv201_hn_2_016_abc63680-1c0" phases=1 bus1=x_63680_1.3 kV=0.24 kW=5.839019 pf=0.93 status=variable model=4 CVRwatts=0.8 CVRvars=3 class=1 yearly=Residential conn=wye
New "Load.mdv201_hn_2_291_abc63681-1a0" phases=1 bus1=x_63681_1.1 kV=0.24 kW=4.08813166666667 pf=0.9234 status=variable model=4 CVRwatts=0.8 CVRvars=3 class=1 yearly=Residential conn=wye
New "Load.mdv201_hn_2_291_abc63681-1a1" phases=1 bus1=x_63681_2.1 kV=0.24 kW=4.08813166666667 pf=0.9234 status=variable model=4 CVRwatts=0.8 CVRvars=3 class=1 yearly=Residential conn=wye
New "Load.mdv201_hn_2_291_abc63681-1a2" phases=1 bus1=x_63681_3.1 kV=0.24 kW=4.08813166666667 pf=0.9234 status=variable model=4 CVRwatts=0.8 CVRvars=3 class=1 yearly=Residential conn=wye
New "Load.mdv201_1144263fuse-1a0" phases=1 bus1=x_1144263_1.1 kV=0.24 kW=4.49050275 pf=0.9234 status=variable model=4 CVRwatts=0.8 CVRvars=3 class=1 yearly=Residential conn=wye
New "Load.mdv201_1144263fuse-1a1" phases=1 bus1=x_1144263_2.1 kV=0.24 kW=4.49050275 pf=0.9234 status=variable model=4 CVRwatts=0.8 CVRvars=3 class=1 yearly=Residential conn=wye
New "Load.mdv201_1144263fuse-1a2" phases=1 bus1=x_1144263_3.1 kV=0.24 kW=4.49050275 pf=0.9234 status=variable model=4 CVRwatts=0.8 CVRvars=3 class=1 yearly=Residential conn=wye
New "Load.mdv201_1144263fuse-1a3" phases=1 bus1=x_1144263_4.1 kV=0.24 kW=4.49050275 pf=0.9234 status=variable model=4 CVRwatts=0.8 CVRvars=3 class=1 yearly=Residential conn=wye
New "Load.mdv201_hn_2_725_a1144264-1a0" phases=1 bus1=x_1144264_1.1 kV=0.24 kW=5.267213 pf=0.9234 status=variable model=4 CVRwatts=0.8 CVRvars=3 class=1 yearly=Residential conn=wye
New "Load.mdv201_hn_2_725_a1144264-1a1" phases=1 bus1=x_1144264_2.1 kV=0.24 kW=5.267213 pf=0.9234 status=variable model=4 CVRwatts=0.8 CVRvars=3 class=1 yearly=Residential conn=wye
New "Load.mdv201_hn_2_725_a1144264-1a2" phases=1 bus1=x_1144264_3.1 kV=0.24 kW=5.267213 pf=0.9234 status=variable model=4 CVRwatts=0.8 CVRvars=3 class=1 yearly=Residential conn=wye
New "Load.mdv201_hn_2_725_a1144264-1a3" phases=1 bus1=x_1144264_4.1 kV=0.24 kW=5.267213 pf=0.9234 status=variable model=4 CVRwatts=0.8 CVRvars=3 class=1 yearly=Residential conn=wye
New "Load.mdv201_hn_2_726_a63675-1a0" phases=1 bus1=x_63675_1.1 kV=0.24 kW=4.7485355 pf=0.9234 status=variable model=4 CVRwatts=0.8 CVRvars=3 class=1 yearly=Residential conn=wye
New "Load.mdv201_hn_2_726_a63675-1a1" phases=1 bus1=x_63675_2.1 kV=0.24 kW=4.7485355 pf=0.9234 status=variable model=4 CVRwatts=0.8 CVRvars=3 class=1 yearly=Residential conn=wye
New "Load.mdv201_hn_2_726_a63675-1a2" phases=1 bus1=x_63675_3.1 kV=0.24 kW=4.7485355 pf=0.9234 status=variable model=4 CVRwatts=0.8 CVRvars=3 class=1 yearly=Residential conn=wye
New "Load.mdv201_hn_2_726_a63675-1a3" phases=1 bus1=x_63675_4.1 kV=0.24 kW=4.7485355 pf=0.9234 status=variable model=4 CVRwatts=0.8 CVRvars=3 class=1 yearly=Residential conn=wye
New "Load.mdv201_hn_2_613_abc63682-1a0" phases=1 bus1=x_63682_1.1 kV=0.24 kW=2.747475 pf=0.9234 status=variable model=4 CVRwatts=0.8 CVRvars=3 class=1 yearly=Residential conn=wye
New "Load.mdv201_hn_2_616_abc28226-1c0" phases=1 bus1=x_28226_1.3 kV=0.24 kW=5.5510765 pf=0.93 status=variable model=4 CVRwatts=0.8 CVRvars=3 class=1 yearly=Residential conn=wye
New "Load.mdv201_hn_2_616_abc28226-1c1" phases=1 bus1=x_28226_2.3 kV=0.24 kW=5.5510765 pf=0.93 status=variable model=4 CVRwatts=0.8 CVRvars=3 class=1 yearly=Residential conn=wye
New "Load.mdv201_hn_2_620_c28227-1c0" phases=1 bus1=x_28227_1.3 kV=0.24 kW=5.66674566666667 pf=0.93 status=variable model=4 CVRwatts=0.8 CVRvars=3 class=1 yearly=Residential conn=wye
New "Load.mdv201_hn_2_620_c28227-1c1" phases=1 bus1=x_28227_2.3 kV=0.24 kW=5.66674566666667 pf=0.93 status=variable model=4 CVRwatts=0.8 CVRvars=3 class=1 yearly=Residential conn=wye
New "Load.mdv201_hn_2_620_c28227-1c2" phases=1 bus1=x_28227_3.3 kV=0.24 kW=5.66674566666667 pf=0.93 status=variable model=4 CVRwatts=0.8 CVRvars=3 class=1 yearly=Residential conn=wye
New "Load.mdv201_hn_2_621_c28222-1c0" phases=1 bus1=x_28222_1.3 kV=0.24 kW=6.8884815 pf=0.93 status=variable model=4 CVRwatts=0.8 CVRvars=3 class=1 yearly=Residential conn=wye
New "Load.mdv201_hn_2_621_c28222-1c1" phases=1 bus1=x_28222_2.3 kV=0.24 kW=6.8884815 pf=0.93 status=variable model=4 CVRwatts=0.8 CVRvars=3 class=1 yearly=Residential conn=wye
New "Load.mdv201_hn_2_622_c28223-1c0" phases=1 bus1=x_28223_1.3 kV=0.24 kW=7.4540312 pf=0.93 status=variable model=4 CVRwatts=0.8 CVRvars=3 class=1 yearly=Residential conn=wye
New "Load.mdv201_hn_2_622_c28223-1c1" phases=1 bus1=x_28223_2.3 kV=0.24 kW=7.4540312 pf=0.93 status=variable model=4 CVRwatts=0.8 CVRvars=3 class=1 yearly=Residential conn=wye
New "Load.mdv201_hn_2_622_c28223-1c2" phases=1 bus1=x_28223_3.3 kV=0.24 kW=7.4540312 pf=0.93 status=variable model=4 CVRwatts=0.8 CVRvars=3 class=1 yearly=Residential conn=wye
New "Load.mdv201_hn_2_622_c28223-1c3" phases=1 bus1=x_28223_4.3 kV=0.24 kW=7.4540312 pf=0.93 status=variable model=4 CVRwatts=0.8 CVRvars=3 class=1 yearly=Residential conn=wye
New "Load.mdv201_hn_2_622_c28223-1c4" phases=1 bus1=x_28223_5.3 kV=0.24 kW=7.4540312 pf=0.93 status=variable model=4 CVRwatts=0.8 CVRvars=3 class=1 yearly=Residential conn=wye
New "Load.mdv201_hn_2_623_c14865-1c0" phases=1 bus1=x_14865_1.3 kV=0.24 kW=5.663933 pf=0.93 status=variable model=4 CVRwatts=0.8 CVRvars=3 class=1 yearly=Residential conn=wye
New "Load.mdv201_hn_2_623_c14865-1c1" phases=1 bus1=x_14865_2.3 kV=0.24 kW=5.663933 pf=0.93 status=variable model=4 CVRwatts=0.8 CVRvars=3 class=1 yearly=Residential conn=wye
New "Load.mdv201_hn_2_624_c14866-1c0" phases=1 bus1=x_14866_1.3 kV=0.24 kW=4.73295266666667 pf=0.93 status=variable model=4 CVRwatts=0.8 CVRvars=3 class=1 yearly=Residential conn=wye
New "Load.mdv201_hn_2_624_c14866-1c1" phases=1 bus1=x_14866_2.3 kV=0.24 kW=4.73295266666667 pf=0.93 status=variable model=4 CVRwatts=0.8 CVRvars=3 class=1 yearly=Residential conn=wye
New "Load.mdv201_hn_2_624_c14866-1c2" phases=1 bus1=x_14866_3.3 kV=0.24 kW=4.73295266666667 pf=0.93 status=variable model=4 CVRwatts=0.8 CVRvars=3 class=1 yearly=Residential conn=wye
New "Load.mdv201_hn_2_625_c14882-1c0" phases=1 bus1=x_14882_1.3 kV=0.24 kW=5.069062 pf=0.93 status=variable model=4 CVRwatts=0.8 CVRvars=3 class=1 yearly=Residential conn=wye
New "Load.mdv201_hn_2_626_c14867-1c0" phases=1 bus1=x_14867_1.3 kV=0.24 kW=5.7588595 pf=0.93 status=variable model=4 CVRwatts=0.8 CVRvars=3 class=1 yearly=Residential conn=wye
New "Load.mdv201_hn_2_626_c14867-1c1" phases=1 bus1=x_14867_2.3 kV=0.24 kW=5.7588595 pf=0.93 status=variable model=4 CVRwatts=0.8 CVRvars=3 class=1 yearly=Residential conn=wye
New "Load.mdv201_hn_2_627_c14868-1c0" phases=1 bus1=x_14868_1.3 kV=0.24 kW=5.269462 pf=0.93 status=variable model=4 CVRwatts=0.8 CVRvars=3 class=1 yearly=Residential conn=wye
New "Load.mdv201_hn_2_618_abc28220-1a0" phases=1 bus1=x_28220_1.1 kV=0.24 kW=3.822786 pf=0.9234 status=variable model=4 CVRwatts=0.8 CVRvars=3 class=1 yearly=Residential conn=wye
New "Load.mdv201_hn_2_618_abc28220-1a1" phases=1 bus1=x_28220_2.1 kV=0.24 kW=3.822786 pf=0.9234 status=variable model=4 CVRwatts=0.8 CVRvars=3 class=1 yearly=Residential conn=wye
New "Load.mdv201_hn_2_618_abc28220-1a2" phases=1 bus1=x_28220_3.1 kV=0.24 kW=3.822786 pf=0.9234 status=variable model=4 CVRwatts=0.8 CVRvars=3 class=1 yearly=Residential conn=wye
New "Load.mdv201_105409fuse-1c0" phases=1 bus1=x_105409_1.3 kV=0.24 kW=6.9580945 pf=0.93 status=variable model=4 CVRwatts=0.8 CVRvars=3 class=1 yearly=Residential conn=wye
New "Load.mdv201_105409fuse-1c1" phases=1 bus1=x_105409_2.3 kV=0.24 kW=6.9580945 pf=0.93 status=variable model=4 CVRwatts=0.8 CVRvars=3 class=1 yearly=Residential conn=wye
New "Load.mdv201_hn_2_705_abc52524-1a0" phases=1 bus1=x_52524_1.1 kV=0.24 kW=5.602551 pf=0.9234 status=variable model=4 CVRwatts=0.8 CVRvars=3 class=1 yearly=Residential conn=wye
New "Load.mdv201_hn_2_705_abc52524-1a1" phases=1 bus1=x_52524_2.1 kV=0.24 kW=5.602551 pf=0.9234 status=variable model=4 CVRwatts=0.8 CVRvars=3 class=1 yearly=Residential conn=wye
New "Load.mdv201_hn_2_816_abc14879-1a0" phases=1 bus1=x_14879_1.1 kV=0.24 kW=6.552154 pf=0.9234 status=variable model=4 CVRwatts=0.8 CVRvars=3 class=1 yearly=Residential conn=wye
New "Load.mdv201_hn_2_816_abc14879-1a1" phases=1 bus1=x_14879_2.1 kV=0.24 kW=6.552154 pf=0.9234 status=variable model=4 CVRwatts=0.8 CVRvars=3 class=1 yearly=Residential conn=wye
New "Load.mdv201_hn_2_827_a14873-1a0" phases=1 bus1=x_14873_1.1 kV=0.24 kW=4.27686833333333 pf=0.9234 status=variable model=4 CVRwatts=0.8 CVRvars=3 class=1 yearly=Residential conn=wye
New "Load.mdv201_hn_2_827_a14873-1a1" phases=1 bus1=x_14873_2.1 kV=0.24 kW=4.27686833333333 pf=0.9234 status=variable model=4 CVRwatts=0.8 CVRvars=3 class=1 yearly=Residential conn=wye
New "Load.mdv201_hn_2_827_a14873-1a2" phases=1 bus1=x_14873_3.1 kV=0.24 kW=4.27686833333333 pf=0.9234 status=variable model=4 CVRwatts=0.8 CVRvars=3 class=1 yearly=Residential conn=wye
New "Load.mdv201_hn_2_830_a14875-1a0" phases=1 bus1=x_14875_1.1 kV=0.24 kW=5.317357 pf=0.9234 status=variable model=4 CVRwatts=0.8 CVRvars=3 class=1 yearly=Residential conn=wye
New "Load.mdv201_hn_2_817_abc14880-1a0" phases=1 bus1=x_14880_1.1 kV=0.24 kW=4.629966 pf=0.9234 status=variable model=4 CVRwatts=0.8 CVRvars=3 class=1 yearly=Residential conn=wye
New "Load.mdv201_hn_2_819_abc8177-1a0" phases=1 bus1=x_8177_1.1 kV=0.24 kW=8.413751 pf=0.9234 status=variable model=4 CVRwatts=0.8 CVRvars=3 class=1 yearly=Residential conn=wye
New "Load.mdv201_hn_2_286_abc8178-1a0" phases=1 bus1=x_8178_1.1 kV=0.24 kW=4.749058 pf=0.9234 status=variable model=4 CVRwatts=0.8 CVRvars=3 class=1 yearly=Residential conn=wye
New "Load.mdv201_hn_2_286_abc8178-1a1" phases=1 bus1=x_8178_2.1 kV=0.24 kW=4.749058 pf=0.9234 status=variable model=4 CVRwatts=0.8 CVRvars=3 class=1 yearly=Residential conn=wye
New "Load.mdv201_hn_2_303_a1144255-1a0" phases=1 bus1=x_1144255_1.1 kV=0.24 kW=6.046535 pf=0.9234 status=variable model=4 CVRwatts=0.8 CVRvars=3 class=1 yearly=Residential conn=wye
New "Load.mdv201_hn_2_304_a8174-1a0" phases=1 bus1=x_8174_1.1 kV=0.24 kW=3.5664945 pf=0.9234 status=variable model=4 CVRwatts=0.8 CVRvars=3 class=1 yearly=Residential conn=wye
New "Load.mdv201_hn_2_304_a8174-1a1" phases=1 bus1=x_8174_2.1 kV=0.24 kW=3.5664945 pf=0.9234 status=variable model=4 CVRwatts=0.8 CVRvars=3 class=1 yearly=Residential conn=wye
New "Load.mdv201_hn_2_113_abc8184-1a0" phases=1 bus1=x_8184_1.1 kV=0.24 kW=4.636234 pf=0.9234 status=variable model=4 CVRwatts=0.8 CVRvars=3 class=1 yearly=Residential conn=wye
New "Load.mdv201_hn_2_281_a8186-1a0" phases=1 bus1=x_8186_1.1 kV=0.24 kW=3.5278415 pf=0.9234 status=variable model=4 CVRwatts=0.8 CVRvars=3 class=1 yearly=Residential conn=wye
New "Load.mdv201_hn_2_281_a8186-1a1" phases=1 bus1=x_8186_2.1 kV=0.24 kW=3.5278415 pf=0.9234 status=variable model=4 CVRwatts=0.8 CVRvars=3 class=1 yearly=Residential conn=wye
New "Load.mdv201_hn_2_070_a1144231-1a0" phases=1 bus1=x_1144231_1.1 kV=0.24 kW=3.065054 pf=0.9234 status=variable model=4 CVRwatts=0.8 CVRvars=3 class=1 yearly=Residential conn=wye
New "Load.mdv201_hn_21023_a8193-1a0" phases=1 bus1=x_8193_1.1 kV=0.24 kW=4.408496 pf=0.9234 status=variable model=4 CVRwatts=0.8 CVRvars=3 class=1 yearly=Residential conn=wye
New "Load.mdv201_hn_2_072_a8187-1a0" phases=1 bus1=x_8187_1.1 kV=0.24 kW=4.095096 pf=0.9234 status=variable model=4 CVRwatts=0.8 CVRvars=3 class=1 yearly=Residential conn=wye
New "Load.mdv201_hn_2_072_a8187-1a1" phases=1 bus1=x_8187_2.1 kV=0.24 kW=4.095096 pf=0.9234 status=variable model=4 CVRwatts=0.8 CVRvars=3 class=1 yearly=Residential conn=wye
New "Load.mdv201_hn_2_076_a14843-1a0" phases=1 bus1=x_14843_1.1 kV=0.24 kW=6.144734 pf=0.9234 status=variable model=4 CVRwatts=0.8 CVRvars=3 class=1 yearly=Residential conn=wye
New "Load.mdv201_hn_2_073_a8183-1a0" phases=1 bus1=x_8183_1.1 kV=0.24 kW=6.435151 pf=0.9234 status=variable model=4 CVRwatts=0.8 CVRvars=3 class=1 yearly=Residential conn=wye
New "Load.mdv201_hn_2_073_a8183-1a1" phases=1 bus1=x_8183_2.1 kV=0.24 kW=6.435151 pf=0.9234 status=variable model=4 CVRwatts=0.8 CVRvars=3 class=1 yearly=Residential conn=wye
New "Load.mdv201_hn_2_074_a8182-1a0" phases=1 bus1=x_8182_1.1 kV=0.24 kW=5.327804 pf=0.9234 status=variable model=4 CVRwatts=0.8 CVRvars=3 class=1 yearly=Residential conn=wye
New "Load.mdv201_hn_2_068_abc14845-1a0" phases=1 bus1=x_14845_1.1 kV=0.24 kW=4.692646 pf=0.9234 status=variable model=4 CVRwatts=0.8 CVRvars=3 class=1 yearly=Residential conn=wye
New "Load.mdv201_hn_2_068_abc14845-1a1" phases=1 bus1=x_14845_2.1 kV=0.24 kW=4.692646 pf=0.9234 status=variable model=4 CVRwatts=0.8 CVRvars=3 class=1 yearly=Residential conn=wye
New "Load.mdv201_hn_2_067_abc14836-1a0" phases=1 bus1=x_14836_1.1 kV=0.24 kW=2.429374 pf=0.9234 status=variable model=4 CVRwatts=0.8 CVRvars=3 class=2 yearly=Commercial_SM conn=wye
New "Load.mdv201_hn_2_067_abc14836-1c0" phases=1 bus1=x_14836_1.3 kV=0.24 kW=0.002109 pf=0.9299 status=variable model=4 CVRwatts=0.8 CVRvars=3 class=2 yearly=Commercial_SM conn=wye
New "Load.mdv201_hn_2_067_abc14836-1a1" phases=1 bus1=x_14836_2.1 kV=0.24 kW=2.429374 pf=0.9234 status=variable model=4 CVRwatts=0.8 CVRvars=3 class=2 yearly=Commercial_SM conn=wye
New "Load.mdv201_hn_2_067_abc14836-1a2" phases=1 bus1=x_14836_3.1 kV=0.24 kW=2.429374 pf=0.9234 status=variable model=4 CVRwatts=0.8 CVRvars=3 class=2 yearly=Commercial_SM conn=wye
New "Load.mdv201_hn_2_067_abc14836-1a3" phases=1 bus1=x_14836_4.1 kV=0.24 kW=2.429374 pf=0.9234 status=variable model=4 CVRwatts=0.8 CVRvars=3 class=2 yearly=Commercial_SM conn=wye
New "Load.mdv201_hn_2_066_abc14832-1a0" phases=1 bus1=x_14832_1.1 kV=0.24 kW=1.479249 pf=0.9234 status=variable model=4 CVRwatts=0.8 CVRvars=3 class=1 yearly=Residential conn=wye
New "Load.mdv201_hn_2_328_c14830-1c0" phases=1 bus1=x_14830_1.3 kV=0.24 kW=6.9739155 pf=0.93 status=variable model=4 CVRwatts=0.8 CVRvars=3 class=1 yearly=Residential conn=wye
New "Load.mdv201_hn_2_328_c14830-1c1" phases=1 bus1=x_14830_2.3 kV=0.24 kW=6.9739155 pf=0.93 status=variable model=4 CVRwatts=0.8 CVRvars=3 class=1 yearly=Residential conn=wye
New "Load.mdv201_hn_2_151_c14833-1c0" phases=1 bus1=x_14833_1.3 kV=0.24 kW=3.477465 pf=0.93 status=variable model=4 CVRwatts=0.8 CVRvars=3 class=1 yearly=Residential conn=wye
New "Load.mdv201_hn_2_151_c14833-1c1" phases=1 bus1=x_14833_2.3 kV=0.24 kW=3.477465 pf=0.93 status=variable model=4 CVRwatts=0.8 CVRvars=3 class=1 yearly=Residential conn=wye
New "Load.mdv201_hn_2_151_c14833-1c2" phases=1 bus1=x_14833_3.3 kV=0.24 kW=3.477465 pf=0.93 status=variable model=4 CVRwatts=0.8 CVRvars=3 class=1 yearly=Residential conn=wye
New "Load.mdv201_hn_2_151_c14833-1c3" phases=1 bus1=x_14833_4.3 kV=0.24 kW=3.477465 pf=0.93 status=variable model=4 CVRwatts=0.8 CVRvars=3 class=1 yearly=Residential conn=wye
New "Load.mdv201_hn_2_232_c14835-1c0" phases=1 bus1=x_14835_1.3 kV=0.24 kW=2.63895 pf=0.93 status=variable model=4 CVRwatts=0.8 CVRvars=3 class=1 yearly=Residential conn=wye
New "Load.mdv201_hn_2_232_c14835-1c1" phases=1 bus1=x_14835_2.3 kV=0.24 kW=2.63895 pf=0.93 status=variable model=4 CVRwatts=0.8 CVRvars=3 class=1 yearly=Residential conn=wye
New "Load.mdv201_hn_2_324_c14844-1c0" phases=1 bus1=x_14844_1.3 kV=0.24 kW=3.666263 pf=0.93 status=variable model=4 CVRwatts=0.8 CVRvars=3 class=1 yearly=Residential conn=wye
New "Load.mdv201_hn_2_318_c28272-1c0" phases=1 bus1=x_28272_1.3 kV=0.24 kW=4.9108515 pf=0.93 status=variable model=4 CVRwatts=0.8 CVRvars=3 class=1 yearly=Residential conn=wye
New "Load.mdv201_hn_2_318_c28272-1c1" phases=1 bus1=x_28272_2.3 kV=0.24 kW=4.9108515 pf=0.93 status=variable model=4 CVRwatts=0.8 CVRvars=3 class=1 yearly=Residential conn=wye
New "Load.mdv201_hn_2_903_c28273-1c0" phases=1 bus1=x_28273_1.3 kV=0.24 kW=5.60697733333333 pf=0.93 status=variable model=4 CVRwatts=0.8 CVRvars=3 class=1 yearly=Residential conn=wye
New "Load.mdv201_hn_2_903_c28273-1c1" phases=1 bus1=x_28273_2.3 kV=0.24 kW=5.60697733333333 pf=0.93 status=variable model=4 CVRwatts=0.8 CVRvars=3 class=1 yearly=Residential conn=wye
New "Load.mdv201_hn_2_903_c28273-1c2" phases=1 bus1=x_28273_3.3 kV=0.24 kW=5.60697733333333 pf=0.93 status=variable model=4 CVRwatts=0.8 CVRvars=3 class=1 yearly=Residential conn=wye
New "Load.mdv201_hn_2_148_c14837-1c0" phases=1 bus1=x_14837_1.3 kV=0.24 kW=7.8641125 pf=0.93 status=variable model=4 CVRwatts=0.8 CVRvars=3 class=1 yearly=Residential conn=wye
New "Load.mdv201_hn_2_148_c14837-1c1" phases=1 bus1=x_14837_2.3 kV=0.24 kW=7.8641125 pf=0.93 status=variable model=4 CVRwatts=0.8 CVRvars=3 class=1 yearly=Residential conn=wye
New "Load.mdv201_hn_2_772_c14846-1c0" phases=1 bus1=x_14846_1.3 kV=0.24 kW=5.020544 pf=0.93 status=variable model=4 CVRwatts=0.8 CVRvars=3 class=1 yearly=Residential conn=wye
New "Load.mdv201_hn_2_290_c14838-1c0" phases=1 bus1=x_14838_1.3 kV=0.24 kW=2.031422 pf=0.93 status=variable model=4 CVRwatts=0.8 CVRvars=3 class=1 yearly=Residential conn=wye
New "Load.mdv201_hn_2_147_c14840-1c0" phases=1 bus1=x_14840_1.3 kV=0.24 kW=3.76013433333333 pf=0.93 status=variable model=4 CVRwatts=0.8 CVRvars=3 class=1 yearly=Residential conn=wye
New "Load.mdv201_hn_2_147_c14840-1c1" phases=1 bus1=x_14840_2.3 kV=0.24 kW=3.76013433333333 pf=0.93 status=variable model=4 CVRwatts=0.8 CVRvars=3 class=1 yearly=Residential conn=wye
New "Load.mdv201_hn_2_147_c14840-1c2" phases=1 bus1=x_14840_3.3 kV=0.24 kW=3.76013433333333 pf=0.93 status=variable model=4 CVRwatts=0.8 CVRvars=3 class=1 yearly=Residential conn=wye
New "Load.mdv201_hn_2_147_c14840-1c3" phases=1 bus1=x_14840_4.3 kV=0.24 kW=3.76013433333333 pf=0.93 status=variable model=4 CVRwatts=0.8 CVRvars=3 class=1 yearly=Residential conn=wye
New "Load.mdv201_hn_2_147_c14840-1c4" phases=1 bus1=x_14840_5.3 kV=0.24 kW=3.76013433333333 pf=0.93 status=variable model=4 CVRwatts=0.8 CVRvars=3 class=1 yearly=Residential conn=wye
New "Load.mdv201_hn_2_147_c14840-1c5" phases=1 bus1=x_14840_6.3 kV=0.24 kW=3.76013433333333 pf=0.93 status=variable model=4 CVRwatts=0.8 CVRvars=3 class=1 yearly=Residential conn=wye
New "Load.mdv201_hn_2_078_c28275-1c0" phases=1 bus1=x_28275_1.3 kV=0.24 kW=3.29921466666667 pf=0.93 status=variable model=4 CVRwatts=0.8 CVRvars=3 class=1 yearly=Residential conn=wye
New "Load.mdv201_hn_2_078_c28275-1c1" phases=1 bus1=x_28275_2.3 kV=0.24 kW=3.29921466666667 pf=0.93 status=variable model=4 CVRwatts=0.8 CVRvars=3 class=1 yearly=Residential conn=wye
New "Load.mdv201_hn_2_078_c28275-1c2" phases=1 bus1=x_28275_3.3 kV=0.24 kW=3.29921466666667 pf=0.93 status=variable model=4 CVRwatts=0.8 CVRvars=3 class=1 yearly=Residential conn=wye
New "Load.mdv201_hn_2_320_c28302-1c0" phases=1 bus1=x_28302_1.3 kV=0.24 kW=6.670151 pf=0.93 status=variable model=4 CVRwatts=0.8 CVRvars=3 class=1 yearly=Residential conn=wye
New "Load.mdv201_hn_2_153_b14829-1b0" phases=1 bus1=x_14829_1.2 kV=0.24 kW=4.203591 pf=0.9342 status=variable model=4 CVRwatts=0.8 CVRvars=3 class=1 yearly=Residential conn=wye
New "Load.mdv201_hn_2_153_b14829-1b1" phases=1 bus1=x_14829_2.2 kV=0.24 kW=4.203591 pf=0.9342 status=variable model=4 CVRwatts=0.8 CVRvars=3 class=1 yearly=Residential conn=wye
New "Load.mdv201_hn_2_153_b14829-1b2" phases=1 bus1=x_14829_3.2 kV=0.24 kW=4.203591 pf=0.9342 status=variable model=4 CVRwatts=0.8 CVRvars=3 class=1 yearly=Residential conn=wye
New "Load.mdv201_hn_2_154_b62298-1b0" phases=1 bus1=x_62298_1.2 kV=0.24 kW=1.789987 pf=0.9342 status=variable model=4 CVRwatts=0.8 CVRvars=3 class=1 yearly=Residential conn=wye
New "Load.mdv201_hn_2_154_b62298-1b1" phases=1 bus1=x_62298_2.2 kV=0.24 kW=1.789987 pf=0.9342 status=variable model=4 CVRwatts=0.8 CVRvars=3 class=1 yearly=Residential conn=wye
New "Load.mdv201_hn_2_154_b62298-1b2" phases=1 bus1=x_62298_3.2 kV=0.24 kW=1.789987 pf=0.9342 status=variable model=4 CVRwatts=0.8 CVRvars=3 class=1 yearly=Residential conn=wye
New "Load.mdv201_hn_21032_b62295-1b0" phases=1 bus1=x_62295_1.2 kV=0.24 kW=4.286511 pf=0.9342 status=variable model=4 CVRwatts=0.8 CVRvars=3 class=1 yearly=Residential conn=wye
New "Load.mdv201_hn_2_327_b62296-1b0" phases=1 bus1=x_62296_1.2 kV=0.24 kW=3.825994 pf=0.9342 status=variable model=4 CVRwatts=0.8 CVRvars=3 class=1 yearly=Residential conn=wye
New "Load.mdv201_hn_2_930_b62301-1b0" phases=1 bus1=x_62301_1.2 kV=0.24 kW=2.883373 pf=0.9342 status=variable model=4 CVRwatts=0.8 CVRvars=3 class=1 yearly=Residential conn=wye
New "Load.mdv201_hn_2_930_b62301-1b1" phases=1 bus1=x_62301_2.2 kV=0.24 kW=2.883373 pf=0.9342 status=variable model=4 CVRwatts=0.8 CVRvars=3 class=1 yearly=Residential conn=wye
New "Load.mdv201_hn_2_155_b39757-1b0" phases=1 bus1=x_39757_1.2 kV=0.24 kW=6.43353633333333 pf=0.9342 status=variable model=4 CVRwatts=0.8 CVRvars=3 class=1 yearly=Residential conn=wye
New "Load.mdv201_hn_2_155_b39757-1b1" phases=1 bus1=x_39757_2.2 kV=0.24 kW=6.43353633333333 pf=0.9342 status=variable model=4 CVRwatts=0.8 CVRvars=3 class=1 yearly=Residential conn=wye
New "Load.mdv201_hn_2_155_b39757-1b2" phases=1 bus1=x_39757_3.2 kV=0.24 kW=6.43353633333333 pf=0.9342 status=variable model=4 CVRwatts=0.8 CVRvars=3 class=1 yearly=Residential conn=wye
New "Load.mdv201_hn_2_156_b39758-1b0" phases=1 bus1=x_39758_1.2 kV=0.24 kW=2.7291815 pf=0.9342 status=variable model=4 CVRwatts=0.8 CVRvars=3 class=1 yearly=Residential conn=wye
New "Load.mdv201_hn_2_156_b39758-1b1" phases=1 bus1=x_39758_2.2 kV=0.24 kW=2.7291815 pf=0.9342 status=variable model=4 CVRwatts=0.8 CVRvars=3 class=1 yearly=Residential conn=wye
...